*Heading
** Job name: 10S Model name: 10
** Generated by: Abaqus/CAE 2018
*Preprint, echo=NO, model=NO, history=NO, contact=NO
**
** PARTS
**
*Part, name=P10
*End Part
**  
**
** ASSEMBLY
**
*Assembly, name=Assembly
**  
*Instance, name=P10-1, part=P10
*Node
      1,         240.,         250.,           0.
      2,         240.,           0.,           0.
      3,           0.,           0.,           0.
      4,           0.,         250.,           0.
      5,         240.,           0.,         100.
      6,           0.,           0.,          50.
      7,           0.,         250.,          50.
      8,         240.,         250.,         100.
      9,         250.,           0.,           0.
     10,         250.,         250.,           0.
     11,         250.,         250.,         100.
     12,         250.,           0.,         100.
     13,         240.,   241.935486,           0.
     14,         240.,   233.870972,           0.
     15,         240.,   225.806458,           0.
     16,         240.,   217.741928,           0.
     17,         240.,   209.677414,           0.
     18,         240.,     201.6129,           0.
     19,         240.,   193.548386,           0.
     20,         240.,   185.483871,           0.
** ... 11596 like lines cut
*Element, type=C3D8R
   1,   270,  2707,  3517,  2167,     1,    13,   367,   132
   2,  2707,  2708,  3518,  3517,    13,    14,   368,   367
   3,  2708,  2709,  3519,  3518,    14,    15,   369,   368
   4,  2709,  2710,  3520,  3519,    15,    16,   370,   369
   5,  2710,  2711,  3521,  3520,    16,    17,   371,   370
   6,  2711,  2712,  3522,  3521,    17,    18,   372,   371
   7,  2712,  2713,  3523,  3522,    18,    19,   373,   372
   8,  2713,  2714,  3524,  3523,    19,    20,   374,   373
   9,  2714,  2715,  3525,  3524,    20,    21,   375,   374
  10,  2715,  2716,  3526,  3525,    21,    22,   376,   375
  11,  2716,  2717,  3527,  3526,    22,    23,   377,   376
  12,  2717,  2718,  3528,  3527,    23,    24,   378,   377
  13,  2718,  2719,  3529,  3528,    24,    25,   379,   378
  14,  2719,  2720,  3530,  3529,    25,    26,   380,   379
  15,  2720,  2721,  3531,  3530,    26,    27,   381,   380
  16,  2721,  2722,  3532,  3531,    27,    28,   382,   381
  17,  2722,  2723,  3533,  3532,    28,    29,   383,   382
  18,  2723,  2724,  3534,  3533,    29,    30,   384,   383
  19,  2724,  2725,  3535,  3534,    30,    31,   385,   384
  20,  2725,  2726,  3536,  3535,    31,    32,   386,   385
** ... 9900 like lines cut
*Nset, nset=Set-1, generate
     1,  11616,      1
*Elset, elset=Set-1, generate
    1,  9920,     1
** Section: Section-1
*Solid Section, elset=Set-1, material=Material-1
,
*End Instance
**  
*Nset, nset=Set-1, instance=P10-1
    1,    2,    3,    4,    5,    6,    7,    8,    9,   10,   11,   12,   43,   44,   45,   46
   47,   48,   49,   50,   51,   52,   53,   54,   55,   56,   57,   58,   59,   60,   61,   62
   63,   64,   65,   66,   67,   68,   69,   70,   71,   72,   73,   74,   75,   76,   77,   78
   79,   80,   81,   82,   83,   84,   85,   86,   87,   88,   89,   90,   91,   92,   93,   94
   95,   96,   97,   98,   99,  100,  101,  102,  103,  104,  105,  106,  107,  108,  109,  110
  111,  112,  113,  114,  115,  116,  117,  118,  119,  120,  121,  122,  123,  124,  125,  126
  127,  128,  129,  130,  131,  132,  163,  164,  165,  166,  167,  168,  169,  170,  171,  172
  173,  174,  175,  176,  177,  178,  179,  180,  181,  182,  183,  184,  185,  186,  187,  188
  189,  190,  191,  192,  193,  194,  195,  196,  197,  198,  199,  200,  201,  202,  203,  204
  205,  206,  207,  208,  209,  210,  211,  212,  213,  214,  215,  216,  217,  218,  219,  220
  221,  222,  223,  224,  225,  226,  227,  228,  229,  230,  231,  232,  233,  234,  235,  236
  237,  238,  239,  240,  241,  242,  243,  244,  245,  246,  247,  248,  249,  250,  251,  252
  253,  254,  255,  256,  257,  258,  259,  260,  261,  262,  263,  264,  265,  266,  267,  268
  269,  270,  271,  272,  273,  274,  275,  276,  277,  278,  279,  280,  281,  282,  283,  284
  285,  286,  287,  288,  289,  290,  291,  292,  293,  294,  295,  296,  297,  298,  299,  300
  301,  302,  303,  304,  305,  306,  307,  308,  309,  310,  311,  312,  313,  314,  315,  316
  317,  318,  319,  320,  321,  322,  323,  324,  325,  326,  327,  328,  329,  330,  331,  332
  333,  334,  335,  336,  337,  338,  339,  340,  341,  342,  343,  344,  345,  346,  347,  348
  349,  350,  351,  352,  353,  354,  355,  356,  357,  358,  359,  360,  361,  362,  363,  364
  365,  366, 2167, 2168, 2169, 2170, 2171, 2172, 2173, 2174, 2175, 2176, 2177, 2178, 2179, 2180
** ... 67 like lines cut
*Elset, elset=Set-1, instance=P10-1
    1,   31,   32,   62,   63,   93,   94,  124,  125,  155,  156,  186,  187,  217,  218,  248
  249,  279,  280,  310,  311,  341,  342,  372,  373,  403,  404,  434,  435,  465,  466,  496
  497,  527,  528,  558,  559,  589,  590,  620,  621,  651,  652,  682,  683,  713,  714,  744
  745,  775,  776,  806,  807,  837,  838,  868,  869,  899,  900,  930,  931,  932,  933,  934
  935,  936,  937,  938,  939,  940,  941,  942,  943,  944,  945,  946,  947,  948,  949,  950
  951,  952,  953,  954,  955,  956,  957,  958,  959,  960,  961,  962,  992,  993, 1023, 1024
 1054, 1055, 1085, 1086, 1116, 1117, 1147, 1148, 1178, 1179, 1209, 1210, 1240, 1241, 1271, 1272
 1302, 1303, 1333, 1334, 1364, 1365, 1395, 1396, 1426, 1427, 1457, 1458, 1488, 1489, 1519, 1520
 1550, 1551, 1581, 1582, 1612, 1613, 1643, 1644, 1674, 1675, 1705, 1706, 1736, 1737, 1767, 1768
 1798, 1799, 1829, 1830, 1860, 1861, 1891, 1892, 1893, 1894, 1895, 1896, 1897, 1898, 1899, 1900
 1901, 1902, 1903, 1904, 1905, 1906, 1907, 1908, 1909, 1910, 1911, 1912, 1913, 1914, 1915, 1916
 1917, 1918, 1919, 1920, 1921, 1922, 1923, 1953, 1954, 1984, 1985, 2015, 2016, 2046, 2047, 2077
 2078, 2108, 2109, 2139, 2140, 2170, 2171, 2201, 2202, 2232, 2233, 2263, 2264, 2294, 2295, 2325
 2326, 2356, 2357, 2387, 2388, 2418, 2419, 2449, 2450, 2480, 2481, 2511, 2512, 2542, 2543, 2573
 2574, 2604, 2605, 2635, 2636, 2666, 2667, 2697, 2698, 2728, 2729, 2759, 2760, 2790, 2791, 2821
 2822, 2852, 2853, 2854, 2855, 2856, 2857, 2858, 2859, 2860, 2861, 2862, 2863, 2864, 2865, 2866
 2867, 2868, 2869, 2870, 2871, 2872, 2873, 2874, 2875, 2876, 2877, 2878, 2879, 2880, 2881, 2882
 2883, 2884, 2914, 2915, 2945, 2946, 2976, 2977, 3007, 3008, 3038, 3039, 3069, 3070, 3100, 3101
 3131, 3132, 3162, 3163, 3193, 3194, 3224, 3225, 3255, 3256, 3286, 3287, 3317, 3318, 3348, 3349
 3379, 3380, 3410, 3411, 3441, 3442, 3472, 3473, 3503, 3504, 3534, 3535, 3565, 3566, 3596, 3597
** ... 57 like lines cut
*Nset, nset=Set-2, instance=P10-1
    1,    2,    3,    4,    9,   10,   13,   14,   15,   16,   17,   18,   19,   20,   21,   22
   23,   24,   25,   26,   27,   28,   29,   30,   31,   32,   33,   34,   35,   36,   37,   38
   39,   40,   41,   42,   43,   44,   45,   46,   47,   48,   49,   50,   51,   52,   53,   54
   55,   56,   57,   58,   59,   60,   61,   62,   63,   64,   65,   66,   67,   68,   69,   70
   71,   72,   73,   74,   75,   76,   77,   78,   79,   80,   81,   82,   83,   84,   85,   86
   87,   88,   89,   90,   91,   92,   93,   94,   95,   96,   97,   98,   99,  100,  101,  102
  103,  104,  105,  106,  107,  108,  109,  110,  111,  112,  113,  114,  115,  116,  117,  118
  119,  120,  121,  122,  123,  124,  125,  126,  127,  128,  129,  130,  131,  132,  289,  290
  291,  292,  293,  294,  295,  296,  297,  298,  299,  300,  301,  302,  303,  304,  305,  306
  307,  308,  309,  310,  311,  312,  313,  314,  315,  316,  317,  318,  367,  368,  369,  370
  371,  372,  373,  374,  375,  376,  377,  378,  379,  380,  381,  382,  383,  384,  385,  386
  387,  388,  389,  390,  391,  392,  393,  394,  395,  396,  397,  398,  399,  400,  401,  402
  403,  404,  405,  406,  407,  408,  409,  410,  411,  412,  413,  414,  415,  416,  417,  418
  419,  420,  421,  422,  423,  424,  425,  426,  427,  428,  429,  430,  431,  432,  433,  434
  435,  436,  437,  438,  439,  440,  441,  442,  443,  444,  445,  446,  447,  448,  449,  450
  451,  452,  453,  454,  455,  456,  457,  458,  459,  460,  461,  462,  463,  464,  465,  466
  467,  468,  469,  470,  471,  472,  473,  474,  475,  476,  477,  478,  479,  480,  481,  482
  483,  484,  485,  486,  487,  488,  489,  490,  491,  492,  493,  494,  495,  496,  497,  498
  499,  500,  501,  502,  503,  504,  505,  506,  507,  508,  509,  510,  511,  512,  513,  514
  515,  516,  517,  518,  519,  520,  521,  522,  523,  524,  525,  526,  527,  528,  529,  530
** ... 46 like lines cut
*Elset, elset=Set-2, instance=P10-1
    1,    2,    3,    4,    5,    6,    7,    8,    9,   10,   11,   12,   13,   14,   15,   16
   17,   18,   19,   20,   21,   22,   23,   24,   25,   26,   27,   28,   29,   30,   31,   32
   33,   34,   35,   36,   37,   38,   39,   40,   41,   42,   43,   44,   45,   46,   47,   48
   49,   50,   51,   52,   53,   54,   55,   56,   57,   58,   59,   60,   61,   62,   63,   64
   65,   66,   67,   68,   69,   70,   71,   72,   73,   74,   75,   76,   77,   78,   79,   80
   81,   82,   83,   84,   85,   86,   87,   88,   89,   90,   91,   92,   93,   94,   95,   96
   97,   98,   99,  100,  101,  102,  103,  104,  105,  106,  107,  108,  109,  110,  111,  112
  113,  114,  115,  116,  117,  118,  119,  120,  121,  122,  123,  124,  125,  126,  127,  128
  129,  130,  131,  132,  133,  134,  135,  136,  137,  138,  139,  140,  141,  142,  143,  144
  145,  146,  147,  148,  149,  150,  151,  152,  153,  154,  155,  156,  157,  158,  159,  160
  161,  162,  163,  164,  165,  166,  167,  168,  169,  170,  171,  172,  173,  174,  175,  176
  177,  178,  179,  180,  181,  182,  183,  184,  185,  186,  187,  188,  189,  190,  191,  192
  193,  194,  195,  196,  197,  198,  199,  200,  201,  202,  203,  204,  205,  206,  207,  208
  209,  210,  211,  212,  213,  214,  215,  216,  217,  218,  219,  220,  221,  222,  223,  224
  225,  226,  227,  228,  229,  230,  231,  232,  233,  234,  235,  236,  237,  238,  239,  240
  241,  242,  243,  244,  245,  246,  247,  248,  249,  250,  251,  252,  253,  254,  255,  256
  257,  258,  259,  260,  261,  262,  263,  264,  265,  266,  267,  268,  269,  270,  271,  272
  273,  274,  275,  276,  277,  278,  279,  280,  281,  282,  283,  284,  285,  286,  287,  288
  289,  290,  291,  292,  293,  294,  295,  296,  297,  298,  299,  300,  301,  302,  303,  304
  305,  306,  307,  308,  309,  310,  311,  312,  313,  314,  315,  316,  317,  318,  319,  320
** ... 42 like lines cut
*Elset, elset=_Surf-1_S5, internal, instance=P10-1, generate
 9890,  9920,     1
*Surface, type=ELEMENT, name=Surf-1
_Surf-1_S5, S5
*Elset, elset=_Surf-2_S5, internal, instance=P10-1, generate
 9890,  9920,     1
*Surface, type=ELEMENT, name=Surf-2
_Surf-2_S5, S5
*End Assembly
*Amplitude, name=Amp-1
            0.1,           514.8,             0.2,          1029.6,             0.3,          1544.4,             0.4,          2059.2
            0.5,           2574.,             0.6,          3088.8,             0.7,          3603.6,             0.8,          4118.4
            0.9,          4633.2,              1.,           5148.
** 
** MATERIALS
** 
*Material, name=Material-1
*Elastic
 31622.8, 0.2
** ----------------------------------------------------------------
** 
** STEP: Step-1
** 
*Step, name=Step-1, nlgeom=NO
*Static
0.1, 1., 1e-05, 1.
** 
** BOUNDARY CONDITIONS
** 
** Name: BC-1 Type: Symmetry/Antisymmetry/Encastre
*Boundary
Set-1, ZASYMM
** Name: BC-2 Type: Symmetry/Antisymmetry/Encastre
*Boundary
Set-2, ENCASTRE
** 
** LOADS
** 
** Name: Load-1   Type: Pressure
*Dsload
Surf-2, P, 0.8
** 
** OUTPUT REQUESTS
** 
*Restart, write, frequency=0
** 
** FIELD OUTPUT: F-Output-2
** 
*Output, field
*Node Output
U, 
*Element Output, directions=YES
E, S
** 
** FIELD OUTPUT: F-Output-1
** 
*Output, field, variable=PRESELECT
** 
** HISTORY OUTPUT: H-Output-1
** 
*Output, history, variable=PRESELECT
*End Step
