*Heading
** Job name: 110 Model name: 110
** Generated by: Abaqus/CAE 2018
*Preprint, echo=NO, model=NO, history=NO, contact=NO
**
** PARTS
**
*Part, name=P110
*End Part
**  
**
** ASSEMBLY
**
*Assembly, name=Assembly
**  
*Instance, name=P110-1, part=P110
*Node
      1,   268.467865,        232.5,   38.4615402
      2,   268.467865,        232.5,           0.
      3,    219.01326,   261.052643,           0.
      4,    219.01326,   261.052643,   38.4615402
      5,   268.467865,         155.,   38.4615402
      6,   268.467865,         155.,           0.
      7,    167.35112,   155.162521,           0.
      8,   120.596451,   154.964081,   55.6069565
      9,   134.233932,         310.,           0.
     10,   134.233932,         310.,   38.4615402
     11,   75.5065918,    276.09375,           0.
     12,   67.5707703,   271.511993,   62.5603561
     13,   134.233932,         310.,         100.
     14,    219.01326,   261.052643,         100.
     15,   113.029243,   297.757477,         100.
     16,   143.885941,   155.558456,         100.
     17,   268.467865,        232.5,         100.
     18,   268.467865,         155.,         100.
     19,   268.467865,         77.5,           0.
     20,    219.01326,   48.9473686,           0.
** ... 6148 like lines cut
*Element, type=C3D8R
   1,   92,  785, 3221,  713,    1,   46,  665,   65
   2,  785,  786, 3222, 3221,   46,   47,  666,  665
   3,  786,  787, 3223, 3222,   47,   48,  667,  666
   4,  787,  788, 3224, 3223,   48,   49,  668,  667
   5,  788,  104,  749, 3224,   49,    2,   50,  668
   6,  713, 3221, 3225,  714,   65,  665,  669,   64
   7, 3221, 3222, 3226, 3225,  665,  666,  670,  669
   8, 3222, 3223, 3227, 3226,  666,  667,  671,  670
   9, 3223, 3224, 3228, 3227,  667,  668,  672,  671
  10, 3224,  749,  750, 3228,  668,   50,   51,  672
  11,  714, 3225, 3229,  715,   64,  669,  673,   63
  12, 3225, 3226, 3230, 3229,  669,  670,  674,  673
  13, 3226, 3227, 3231, 3230,  670,  671,  675,  674
  14, 3227, 3228, 3232, 3231,  671,  672,  676,  675
  15, 3228,  750,  751, 3232,  672,   51,   52,  676
  16,  715, 3229, 3233,  716,   63,  673,  677,   62
  17, 3229, 3230, 3234, 3233,  673,  674,  678,  677
  18, 3230, 3231, 3235, 3234,  674,  675,  679,  678
  19, 3231, 3232, 3236, 3235,  675,  676,  680,  679
  20, 3232,  751,  752, 3236,  676,   52,   53,  680
** ... 4926 like lines cut
*Nset, nset=Set-1, generate
    1,  6168,     1
*Elset, elset=Set-1, generate
    1,  4946,     1
** Section: Section-1
*Solid Section, elset=Set-1, material=Material-1
,
*End Instance
**  
*Nset, nset=Set-1, instance=P110-1
    1,    2,    3,    4,    5,    6,    9,   10,   11,   12,   13,   14,   15,   17,   18,   19
   20,   21,   22,   23,   24,   25,   26,   27,   28,   29,   30,   31,   32,   33,   34,   35
   37,   39,   40,   41,   42,   43,   44,   45,   46,   47,   48,   49,   50,   51,   52,   53
   54,   55,   56,   57,   58,   59,   60,   61,   62,   63,   64,   65,   66,   67,   68,   69
   92,   93,   94,   95,   96,   97,  104,  105,  106,  107,  108,  109,  110,  111,  112,  113
  114,  115,  116,  117,  118,  119,  120,  121,  122,  123,  124,  125,  126,  127,  128,  129
  130,  131,  132,  133,  134,  135,  147,  148,  149,  150,  162,  163,  164,  165,  166,  167
  168,  169,  170,  171,  172,  173,  174,  175,  176,  177,  178,  179,  180,  181,  182,  183
  184,  185,  186,  187,  188,  189,  190,  191,  192,  193,  194,  195,  196,  197,  198,  199
  200,  201,  202,  203,  204,  205,  230,  231,  232,  233,  234,  235,  236,  237,  238,  239
  240,  241,  242,  243,  244,  245,  246,  247,  248,  255,  256,  257,  258,  259,  260,  261
  262,  263,  264,  265,  266,  267,  268,  269,  270,  271,  272,  273,  274,  275,  276,  277
  278,  279,  286,  287,  288,  289,  290,  291,  292,  293,  294,  295,  296,  297,  304,  305
  306,  307,  308,  309,  310,  311,  312,  313,  314,  315,  316,  317,  318,  319,  320,  321
  322,  323,  324,  325,  326,  327,  328,  340,  341,  342,  343,  344,  345,  346,  347,  348
  349,  350,  351,  352,  353,  354,  355,  356,  368,  369,  370,  371,  372,  373,  374,  375
  376,  377,  378,  379,  380,  381,  382,  383,  384,  385,  386,  387,  388,  389,  390,  391
  392,  393,  394,  403,  404,  405,  406,  407,  408,  409,  410,  411,  412,  413,  414,  415
  416,  417,  418,  419,  420,  421,  430,  431,  432,  433,  434,  435,  436,  437,  438,  439
  440,  441,  442,  443,  444,  445,  446,  447,  448,  449,  450,  451,  452,  453,  454,  455
** ... 58 like lines cut
*Elset, elset=Set-1, instance=P110-1
    1,    2,    3,    4,    5,    6,    7,    8,    9,   10,   11,   12,   13,   14,   15,   16
   17,   18,   19,   20,   21,   22,   23,   24,   25,   26,   27,   28,   29,   30,   31,   32
   33,   34,   35,   36,   37,   38,   39,   40,   71,   72,   73,   74,   75,  106,  107,  108
  109,  110,  141,  142,  143,  144,  145,  176,  177,  178,  179,  180,  211,  212,  213,  214
  215,  246,  247,  248,  249,  250,  251,  252,  253,  254,  255,  256,  257,  258,  259,  260
  261,  262,  263,  264,  265,  266,  267,  268,  269,  270,  271,  272,  273,  274,  275,  276
  277,  278,  279,  280,  281,  282,  283,  284,  285,  286,  287,  288,  289,  290,  291,  292
  293,  294,  295,  296,  297,  298,  299,  300,  301,  302,  303,  304,  305,  317,  329,  341
  353,  365,  377,  389,  401,  413,  425,  437,  449,  461,  473,  485,  497,  509,  521,  533
  545,  557,  569,  581,  593,  605,  617,  629,  641,  653,  665,  666,  667,  668,  669,  670
  671,  672,  673,  674,  675,  676,  677,  678,  679,  680,  681,  682,  683,  684,  685,  686
  687,  688,  689,  690,  691,  692,  693,  694,  695,  696,  697,  698,  699,  700,  701,  702
  703,  704,  705,  706,  707,  708,  709,  710,  711,  712,  713,  714,  715,  716,  717,  718
  719,  720,  721,  722,  723,  724,  725,  726,  727,  728,  729,  730,  731,  732,  733,  734
  735,  736,  737,  738,  739,  740,  741,  742,  743,  744,  745,  746,  747,  748,  749,  750
  751,  752,  753,  754,  755,  756,  757,  758,  759,  760,  761,  762,  763,  764,  765,  766
  767,  768,  769,  858,  859,  860,  861,  862,  863,  864,  865,  954,  955,  956,  957,  958
  959,  960,  961, 1050, 1051, 1052, 1053, 1054, 1055, 1056, 1057, 1146, 1147, 1148, 1149, 1150
 1151, 1152, 1153, 1242, 1243, 1244, 1245, 1246, 1247, 1248, 1249, 1338, 1339, 1340, 1341, 1342
 1343, 1344, 1345, 1346, 1347, 1348, 1349, 1350, 1351, 1352, 1353, 1354, 1355, 1356, 1357, 1358
** ... 47 like lines cut
*Nset, nset=Set-2, instance=P110-1
    2,    3,    6,    7,    9,   11,   19,   20,   23,   24,   27,   28,   31,   50,   51,   52
   53,   54,   55,   70,   71,   72,   73,   74,   75,   98,   99,  100,  101,  102,  103,  104
  105,  106,  107,  108,  109,  110,  111,  112,  113,  114,  115,  116,  117,  118,  119,  120
  136,  137,  138,  139,  140,  141,  142,  143,  144,  145,  146,  168,  169,  170,  171,  172
  173,  268,  269,  270,  271,  272,  273,  274,  275,  276,  277,  278,  279,  280,  281,  282
  283,  284,  285,  312,  313,  314,  315,  316,  317,  318,  319,  320,  321,  322,  323,  324
  325,  326,  327,  328,  329,  330,  331,  332,  333,  334,  335,  336,  337,  338,  339,  376
  377,  378,  379,  380,  381,  382,  383,  384,  385,  386,  387,  388,  389,  390,  391,  392
  393,  394,  395,  396,  397,  398,  399,  400,  401,  402,  438,  439,  440,  441,  442,  443
  444,  445,  446,  447,  448,  449,  450,  451,  452,  453,  454,  455,  456,  749,  750,  751
  752,  753,  754,  755,  756,  757,  758,  759,  760,  761,  762,  763,  764,  765,  766,  767
  768,  769,  770,  771,  772,  773,  774,  775,  776,  777,  778,  779,  780,  781,  782,  783
  784,  945,  946,  947,  948,  949,  950,  951,  952,  953,  954,  955,  956,  957,  958,  959
  960,  961,  962,  963,  964,  965,  966,  967,  968,  969,  970,  971,  972,  973,  974,  975
  976,  977,  978,  979,  980,  981,  982,  983,  984,  985,  986,  987,  988,  989,  990,  991
  992,  993,  994,  995,  996,  997,  998,  999, 1000, 1001, 1002, 1003, 1004, 1005, 1006, 1007
 1008, 1009, 1010, 1543, 1544, 1545, 1546, 1547, 1548, 1549, 1550, 1551, 1552, 1553, 1554, 1555
 1556, 1557, 1558, 1559, 1560, 1561, 1562, 1563, 1564, 1565, 1566, 1567, 1568, 1569, 1570, 1571
 1572, 1573, 1574, 1575, 1576, 1577, 1578, 1687, 1688, 1689, 1690, 1691, 1692, 1693, 1694, 1695
 1696, 1697, 1698, 1699, 1700, 1701, 1702, 1703, 1704, 1705, 1706, 1707, 1708, 1709, 1710, 1711
** ... 14 like lines cut
*Elset, elset=Set-2, instance=P110-1
    5,   10,   15,   20,   25,   30,   35,   40,   45,   50,   55,   60,   65,   70,   75,   80
   85,   90,   95,  100,  105,  110,  115,  120,  125,  130,  135,  140,  145,  150,  155,  160
  165,  170,  175,  180,  185,  190,  195,  200,  205,  210,  215,  220,  225,  230,  235,  240
  245,  246,  247,  248,  249,  250,  251,  252,  253,  254,  255,  256,  257,  306,  307,  308
  309,  310,  311,  312,  313,  314,  315,  316,  317,  366,  367,  368,  369,  370,  371,  372
  373,  374,  375,  376,  377,  426,  427,  428,  429,  430,  431,  432,  433,  434,  435,  436
  437,  486,  487,  488,  489,  490,  491,  492,  493,  494,  495,  496,  497,  546,  547,  548
  549,  550,  551,  552,  553,  554,  555,  556,  557,  606,  607,  608,  609,  610,  611,  612
  613,  614,  615,  616,  617, 1730, 1731, 1732, 1733, 1734, 1735, 1736, 1737, 1738, 1739, 1740
 1741, 1742, 1743, 1744, 1745, 1746, 1747, 1748, 1749, 1750, 1751, 1752, 1753, 1754, 1755, 1756
 1757, 1758, 1759, 1760, 1761, 1762, 1763, 1764, 1765, 1766, 1767, 1768, 1769, 1770, 1771, 1772
 1773, 1774, 1775, 1776, 1777, 1778, 1975, 1976, 1977, 1978, 1979, 1980, 1981, 1982, 1983, 1984
 1985, 1986, 1987, 1988, 1989, 1990, 1991, 1992, 1993, 1994, 1995, 1996, 1997, 1998, 1999, 2000
 2001, 2002, 2003, 2004, 2005, 2006, 2007, 2008, 2009, 2010, 2011, 2012, 2013, 2014, 2015, 2016
 2017, 2018, 2019, 2020, 2021, 2022, 2023, 2024, 2025, 2026, 2027, 2028, 2029, 2030, 2031, 2032
 2033, 2034, 2035, 2036, 2037, 2038, 2039, 2040, 2041, 2042, 2043, 2044, 2045, 2046, 2047, 2048
 2049, 2050, 2051, 2052, 2053, 2054, 2055, 2056, 2057, 2058, 2395, 2396, 2397, 2398, 2399, 2400
 2401, 2402, 2403, 2404, 2405, 2406, 2407, 2408, 2409, 2410, 2411, 2412, 2413, 2414, 2415, 2416
 2417, 2418, 2419, 2420, 2421, 2422, 2423, 2424, 2425, 2426, 2427, 2428, 2429, 2430, 2431, 2432
 2433, 2434, 2435, 2436, 2437, 2438, 2439, 2440, 2441, 2442, 2443, 2444, 2445, 2446, 2447, 2448
** ... 11 like lines cut
*Elset, elset=_Surf-1_S4, internal, instance=P110-1, generate
  673,  1337,     8
*Elset, elset=_Surf-1_S3, internal, instance=P110-1
 1338, 1339, 1340, 1341, 1342, 1343, 1344, 1394, 1395, 1396, 1397, 1398, 1399, 1400, 1450, 1451
 1452, 1453, 1454, 1455, 1456, 1506, 1507, 1508, 1509, 1510, 1511, 1512, 1562, 1563, 1564, 1565
 1566, 1567, 1568, 1618, 1619, 1620, 1621, 1622, 1623, 1624, 1674, 1675, 1676, 1677, 1678, 1679
 1680, 3475, 3476, 3477, 3478, 3479, 3480, 3481, 3531, 3532, 3533, 3534, 3535, 3536, 3537, 3587
 3588, 3589, 3590, 3591, 3592, 3593, 3643, 3644, 3645, 3646, 3647, 3648, 3649, 3699, 3700, 3701
 3702, 3703, 3704, 3705, 3755, 3756, 3757, 3758, 3759, 3760, 3761, 3811, 3812, 3813, 3814, 3815
 3816, 3817
*Elset, elset=_Surf-1_S2, internal, instance=P110-1
 3867, 3868, 3869, 3870, 3871, 3872, 3873, 3874, 3875, 3876, 3877, 3878, 3963, 3964, 3965, 3966
 3967, 3968, 3969, 3970, 3971, 3972, 3973, 3974, 4059, 4060, 4061, 4062, 4063, 4064, 4065, 4066
 4067, 4068, 4069, 4070, 4071, 4072, 4073, 4074, 4075, 4076, 4077, 4078, 4079, 4080, 4081, 4082
 4083, 4084, 4085, 4086, 4087, 4088, 4089, 4090, 4091, 4092, 4093, 4094, 4095, 4096, 4097, 4098
 4099, 4100, 4101, 4102, 4103, 4104, 4105, 4106, 4107, 4108, 4109, 4110, 4111, 4112, 4113, 4114
 4115, 4116, 4117, 4118, 4119, 4120, 4121, 4122, 4123, 4124, 4125, 4126, 4127, 4128, 4129, 4130
 4131, 4132, 4133, 4134, 4135, 4136, 4137, 4138, 4139, 4140, 4141, 4142
*Surface, type=ELEMENT, name=Surf-1
_Surf-1_S4, S4
_Surf-1_S3, S3
_Surf-1_S2, S2
*End Assembly
** 
** MATERIALS
** 
*Material, name=Material-1
*Elastic
 31622.8, 0.2
** ----------------------------------------------------------------
** 
** STEP: Step-1
** 
*Step, name=Step-1, nlgeom=NO
*Static
0.1, 1., 1e-05, 1.
** 
** BOUNDARY CONDITIONS
** 
** Name: BC-1 Type: Symmetry/Antisymmetry/Encastre
*Boundary
Set-1, ZASYMM
** Name: BC-2 Type: Symmetry/Antisymmetry/Encastre
*Boundary
Set-2, ENCASTRE
** 
** LOADS
** 
** Name: Load-1   Type: Pressure
*Dsload
Surf-1, P, 0.8
** 
** OUTPUT REQUESTS
** 
*Restart, write, frequency=0
** 
** FIELD OUTPUT: F-Output-2
** 
*Output, field
*Node Output
U, 
*Element Output, directions=YES
E, S
** 
** FIELD OUTPUT: F-Output-1
** 
*Output, field, variable=PRESELECT
** 
** HISTORY OUTPUT: H-Output-1
** 
*Output, history, variable=PRESELECT
*End Step
