1

   Abaqus 3DEXPERIENCE R2018x                                  Date 23-Nov-2024   Time 21:03:19
   For use by INDIAN INSTITUTE OF TECHNOLOGY under license from Dassault Systemes or its subsidiary.



                         The Abaqus Software is a product of:

                           Dassault Systemes SIMULIA Corp.
                           1301 Atwood Avenue, Suite 101W
                              Johnston, RI 02919, USA
 


                   The Abaqus Software is available only under license
                   from Dassault Systemes or its subsidiary and may be
                   used or reproduced only in accordance with the terms
                   of such license.
 
                          On machine DESKTOP-M4VAJAV 
                          you are authorized to run
                          Abaqus/Standard until 09-Apr-2025

                          Your site id is: 200000000145531 


 
                    For assistance or any other information you may
                    obtain contact information for your local office
                    from the world wide web at:

                      http://www.3ds.com/products/simulia/locations/

 
                * * * * * * * * * * * * * * * * * * * * * * * * * * * * * * 
                *                                                         * 
                *                   *****************                     * 
                *                   *  N O T I C E  *                     * 
                *                   *****************                     * 
                *                                                         * 
                *                                                         * 
                *               Abaqus 3DEXPERIENCE R2018x                * 
                *                                                         * 
                *          BUILD ID: 2017_11_07-22.51.41 127140           * 
                *                                                         * 
                *                                                         * 
                *  Please make sure you are using                         * 
                *  release 3DEXPERIENCE R2018x manuals                    * 
                *  plus the notes accompanying this release.              * 
                *                                                         * 
                *                                                         * 
                *                                                         * 
                *                                                         * 
                *                                                         * 
                *   This program may not be used for commercial purposes  * 
                *           without payment of a commercial fee.          * 
                *                                                         * 
                * * * * * * * * * * * * * * * * * * * * * * * * * * * * * * 


 



     PROCESSING PART, INSTANCE, AND ASSEMBLY INFORMATION
   *******************************************************


     END PROCESSING PART, INSTANCE, AND ASSEMBLY INFORMATION
   ***********************************************************




     OPTIONS BEING PROCESSED
   ***************************


  *Heading
  *Node
  *Element, type=C3D8R
  *Nset, nset=ASSEMBLY_P110-1_SET-1
  *Elset, elset=ASSEMBLY_P110-1_SET-1
  *Nset, nset=ASSEMBLY_SET-1
  *Nset, nset=ASSEMBLY_SET-2
  *Elset, elset=ASSEMBLY_SET-1
  *Elset, elset=ASSEMBLY_SET-2
  *Elset, elset=ASSEMBLY__SURF-1_S3
  *Elset, elset=ASSEMBLY__SURF-1_S4
  *Elset, elset=ASSEMBLY__SURF-2_S3
  *Elset, elset=ASSEMBLY__SURF-2_S4
  *material, name=MATERIAL-1
  *elastic
  *solidsection, elset=ASSEMBLY_P110-1_SET-1, material=MATERIAL-1
  *solidsection, elset=ASSEMBLY_P110-1_SET-1, material=MATERIAL-1
  *surface, type=ELEMENT, name=ASSEMBLY_SURF-1
  *surface, type=ELEMENT, name=ASSEMBLY_SURF-2
  *surface, type=ELEMENT, name=ASSEMBLY_SURF-1
  *surface, type=ELEMENT, name=ASSEMBLY_SURF-2
  *boundary
  *boundary
  *boundary
  *boundary
  *surface, type=ELEMENT, name=ASSEMBLY_SURF-1
  *surface, type=ELEMENT, name=ASSEMBLY_SURF-2
  *output, field
  *output, field, variable=PRESELECT
  *output, history, variable=PRESELECT
  *elementoutput, directions=YES
  *output, field
  *output, field, variable=PRESELECT
  *output, history, variable=PRESELECT
  *elementoutput, directions=YES
  *output, field
  *output, field, variable=PRESELECT
  *output, history, variable=PRESELECT
  *elementoutput, directions=YES
  
                               E L E M E N T   Q U A L I T Y  C H E C K S        
  
  
 ***NOTES: DISTORTED ISOPARAMETRIC ELEMENTS: ANGLE BETWEEN ISOPARAMETRIC LINES 
           IS LESS THAN 45 DEGREES OR GREATER THAN 135 DEGREES.
  
           TETRAHEDRAL QUALITY MEASURE: VOLUME OF TETRAHEDRON DIVIDED BY THE 
           VOLUME OF EQUILATERAL TETRAHEDRON WITH SAME CIRCUMSPHERE RADIUS; 
           0 FOR DEGENERATE TETRAHEDRON AND 1 FOR EQUILATERIAL TETRAHEDRON. IT 
           IS RECOMMENDED THAT THE TETRAHEDRAL QUALITY MEASURE BE GREATER THAN 
           0.02, THE MIN INTERIOR (DIHEDRAL) ANGLE BE GREATER THAN 10 DEGREES, 
           AND THE MAX INTERIOR (DIHEDRAL) ANGLE BE LESS THAN 160 DEGREES. 
  
           MODIFIED TETRAHEDRAL QUALITY MEASURE: ANGLES BETWEEN THE TWO LINE 
           SEGMENTS ON EACH EDGE; THE EDGES OF MODIFIED TETRAHEDRAL SHOULD BE 
           AS STRAIGHT AS POSSIBLE. IT IS RECOMMENDED THAT THE ANGLE BETWEEN 
           THE TWO LINE SEGMENTS ON EACH EDGE IS BETWEEN 160 AND 180 DEGREES. 
  
           TRIANGULAR QUALITY MEASURE: AREA OF TRIANGLE DIVIDED BY THE AREA OF 
           EQUILATERAL TRIANGLE WITH SAME CIRCUMCIRCLE RADIUS; 0 FOR DEGENERATE 
           TRIANGLE AND 1 FOR EQUILATERAL TRIANGLE. IT IS RECOMMENDED THAT THE
           TRIANGULAR QUALITY MEASURE BE GREATER THAN 0.01, THE MIN INTERIOR 
           ANGLE BE GREATER THAN 10 DEGREES, AND THE MAX INTERIOR ANGLE BE LESS 
           THAN 160 DEGREES. 
  
           NODAL ADJUSTMENTS ARISING FROM CONTACT INTERACTIONS AND/OR TIE 
           CONSTRAINTS CAN CAUSE SEVERE ELEMENT DISTORTION. IT MAY BE NECESSARY 
           TO REMESH IN ORDER TO REDUCE THE AMOUNT OF ADJUSTMENT. 

 ***WARNING: 194 elements are distorted. Either the isoparametric angles are 
             out of the suggested limits or the triangular or tetrahedral 
             quality measure is bad. The elements have been identified in 
             element set WarnElemDistorted.
  
 --------------------------------------------------------------------------------
 Distorted isoparametric elements
  
     Element       Min/max angle   Adjusted nodes 
 ---------------- ---------------- -------------- 
      P110-1.3714          44.6618       NO       
      P110-1.3718          44.2965       NO       
      P110-1.3722           44.124       NO       
      P110-1.3726          44.0517       NO       
      P110-1.3730          44.0239       NO       
      P110-1.3734          44.0138       NO       
      P110-1.3738          44.0102       NO       
      P110-1.3742          44.0113       NO       
      P110-1.3746          44.0261       NO       
      P110-1.3750           44.072       NO       
      P110-1.3754          44.1446       NO       
      P110-1.3758          43.5836       NO       
      P110-1.3762          42.2676       NO       
      P110-1.3766          41.3303       NO       
      P110-1.3770          40.4753       NO       
      P110-1.3774          39.8863       NO       
      P110-1.3778          39.5559       NO       
      P110-1.3782          39.3975       NO       
      P110-1.3786          39.3301       NO       
      P110-1.3790          39.3038       NO       
      P110-1.3794          39.2941       NO       
      P110-1.3798          39.2906       NO       
      P110-1.3802          39.2915       NO       
      P110-1.3806          39.3038       NO       
      P110-1.3810          39.3394       NO       
      P110-1.3814          39.3884       NO       
      P110-1.3818          38.8537       NO       
      P110-1.3821          43.9923       NO       
      P110-1.3822          36.1347       NO       
      P110-1.3825          43.2655       NO       
      P110-1.3826          35.3809       NO       
      P110-1.3829          42.4845       NO       
      P110-1.3830          34.7404       NO       
      P110-1.3833          41.9364       NO       
      P110-1.3834           34.303       NO       
      P110-1.3837          41.6415       NO       
      P110-1.3838          34.0553       NO       
      P110-1.3841          41.5113       NO       
      P110-1.3842          33.9349       NO       
      P110-1.3845          41.4614       NO       
      P110-1.3846          33.8829       NO       
      P110-1.3849          41.4439       NO       
      P110-1.3850          33.8623       NO       
      P110-1.3853          41.4378       NO       
      P110-1.3854          33.8546       NO       
      P110-1.3857          41.4354       NO       
      P110-1.3858          33.8516       NO       
      P110-1.3861          41.4349       NO       
      P110-1.3862          33.8516       NO       
      P110-1.3865          41.4418       NO       
      P110-1.3866          33.8585       NO       
      P110-1.3869          41.4727       NO       
      P110-1.3870          33.8772       NO       
      P110-1.3873          41.5626       NO       
      P110-1.3874          33.8923       NO       
      P110-1.3877          41.2114       NO       
      P110-1.3878          33.4412       NO       
      P110-1.4583          42.5799       NO       
      P110-1.4584          42.0443       NO       
      P110-1.4585          41.8643       NO       
      P110-1.4586          41.7978       NO       
      P110-1.4587          41.7731       NO       
      P110-1.4588          41.7644       NO       
      P110-1.4589          41.7615       NO       
      P110-1.4590          41.7606       NO       
      P110-1.4591          41.7604       NO       
      P110-1.4592          41.7607       NO       
      P110-1.4593          41.7628       NO       
      P110-1.4594          41.7851       NO       
      P110-1.4595          41.9581       NO       
      P110-1.4596          42.6182       NO       
      P110-1.4597          43.8479       NO       
      P110-1.4598          44.3373       NO       
      P110-1.4647          37.9261       NO       
      P110-1.4648          37.4386       NO       
      P110-1.4649           37.278       NO       
      P110-1.4650          37.2182       NO       
      P110-1.4651          37.1954       NO       
      P110-1.4652          37.1872       NO       
      P110-1.4653          37.1845       NO       
      P110-1.4654          37.1836       NO       
      P110-1.4655          37.1834       NO       
      P110-1.4656          37.1837       NO       
      P110-1.4657           37.186       NO       
      P110-1.4658          37.2091       NO       
      P110-1.4659          37.3814       NO       
      P110-1.4660          38.0152       NO       
      P110-1.4661          39.1533       NO       
      P110-1.4662          39.6267       NO       
      P110-1.4663          44.8325       NO       
      P110-1.4664           44.963       NO       
      P110-1.4665          44.9779       NO       
      P110-1.4666          44.9516       NO       
      P110-1.4667           44.931       NO       
      P110-1.4668          44.9217       NO       
      P110-1.4669          44.9183       NO       
      P110-1.4670          44.9174       NO       
      P110-1.4671          44.9179       NO       
      P110-1.4672           44.921       NO       
      P110-1.4673          44.9354       NO       
      P110-1.4711          32.7325       NO       
      P110-1.4712          32.3958       NO       
      P110-1.4713          32.2854       NO       
      P110-1.4714          32.2425       NO       
      P110-1.4715          32.2254       NO       
      P110-1.4716           32.219       NO       
      P110-1.4717          32.2167       NO       
      P110-1.4718           32.216       NO       
      P110-1.4719          32.2158       NO       
      P110-1.4720          32.2161       NO       
      P110-1.4721           32.218       NO       
      P110-1.4722          32.2371       NO       
      P110-1.4723          32.3797       NO       
      P110-1.4724          32.8819       NO       
      P110-1.4725          33.7542       NO       
      P110-1.4726          34.1612       NO       
      P110-1.4727          40.7792       NO       
      P110-1.4728          40.7651       NO       
      P110-1.4729           40.751       NO       
      P110-1.4730          40.7217       NO       
      P110-1.4731          40.7013       NO       
      P110-1.4732          40.6919       NO       
      P110-1.4733          40.6885       NO       
      P110-1.4734          40.6874       NO       
      P110-1.4735          40.6877       NO       
      P110-1.4736          40.6906       NO       
      P110-1.4737          40.7037       NO       
      P110-1.4738          40.7856       NO       
      P110-1.4739          41.1262       NO       
      P110-1.4740          41.9098       NO       
      P110-1.4741          42.9568       NO       
      P110-1.4742          43.4639       NO       
      P110-1.8030           27.315       NO       
      P110-1.8031          36.4733       NO       
      P110-1.8034          26.9005       NO       
      P110-1.8035           35.718       NO       
      P110-1.8038           26.411       NO       
      P110-1.8039           34.858       NO       
      P110-1.8042          26.1937       NO       
      P110-1.8043          34.3782       NO       
      P110-1.8046          26.1533       NO       
      P110-1.8047           34.231       NO       
      P110-1.8050            26.15       NO       
      P110-1.8051          34.2078       NO       
      P110-1.8054          26.1497       NO       
      P110-1.8055           34.204       NO       
      P110-1.8058          26.1497       NO       
      P110-1.8059          34.2031       NO       
      P110-1.8062          26.1498       NO       
      P110-1.8063          34.2031       NO       
      P110-1.8066            26.15       NO       
      P110-1.8067          34.2036       NO       
      P110-1.8070          26.1509       NO       
      P110-1.8071          34.2054       NO       
      P110-1.8074          26.1535       NO       
      P110-1.8075          34.2107       NO       
      P110-1.8078          26.1609       NO       
      P110-1.8079          34.2246       NO       
      P110-1.8082          26.1791       NO       
      P110-1.8083          34.2505       NO       
      P110-1.8086          26.2186       NO       
      P110-1.8087          34.2746       NO       
      P110-1.8090          26.3035       NO       
      P110-1.8091          34.2603       NO       
      P110-1.8334          26.6474       NO       
      P110-1.8335          26.9466       NO       
      P110-1.8336          26.9583       NO       
      P110-1.8337          26.9555       NO       
      P110-1.8338          26.9552       NO       
      P110-1.8339          26.9562       NO       
      P110-1.8340          26.9575       NO       
      P110-1.8341          26.9607       NO       
      P110-1.8342          26.9697       NO       
      P110-1.8343          26.9935       NO       
      P110-1.8344          27.0518       NO       
      P110-1.8345          27.1795       NO       
      P110-1.8346           27.422       NO       
      P110-1.8347           27.812       NO       
      P110-1.8348          28.3484       NO       
      P110-1.8349          34.6624       NO       
      P110-1.8350          35.0726       NO       
      P110-1.8351          35.0559       NO       
      P110-1.8352            35.05       NO       
      P110-1.8353          35.0514       NO       
      P110-1.8354          35.0533       NO       
      P110-1.8355          35.0549       NO       
      P110-1.8356          35.0584       NO       
      P110-1.8357          35.0689       NO       
      P110-1.8358          35.0999       NO       
      P110-1.8359          35.1835       NO       
      P110-1.8360          35.3846       NO       
      P110-1.8361          35.7911       NO       
      P110-1.8362          36.4536       NO       
      P110-1.8363          37.3071       NO       
  
  
  *amplitude, name=AMP-1
  *Step, name=Step-1, nlgeom=NO
  *output, field
  *output, field, variable=PRESELECT
  *output, history, variable=PRESELECT
  *Step, name=Step-1, nlgeom=NO
  *Step, name=Step-1, nlgeom=NO
  *static
  *boundary
  *boundary
  *dsload
  *output, field
  *nodeoutput
  *elementoutput, directions=YES
  *output, field, variable=PRESELECT
  *output, history, variable=PRESELECT
  *endstep
  *Step, name=Step-1, nlgeom=NO
  *static
  *boundary
  *boundary
  *endstep

     - (RAMP) OR (STEP) - INDICATE USE OF DEFAULT AMPLITUDES ASSOCIATED WITH THE STEP



                            P R O B L E M   S I Z E


          NUMBER OF ELEMENTS IS                                  8618
          NUMBER OF NODES IS                                    10240
          NUMBER OF NODES DEFINED BY THE USER                   10240
          TOTAL NUMBER OF VARIABLES IN THE MODEL                30720
          (DEGREES OF FREEDOM PLUS MAX NO. OF ANY LAGRANGE MULTIPLIER
           VARIABLES. INCLUDE *PRINT,SOLVE=YES TO GET THE ACTUAL NUMBER.)



                              END OF USER INPUT PROCESSING



     JOB TIME SUMMARY
       USER TIME (SEC)      =   1.9000    
       SYSTEM TIME (SEC)    =  0.50000    
       TOTAL CPU TIME (SEC) =   2.4000    
       WALLCLOCK TIME (SEC) =          2
1

   Abaqus 3DEXPERIENCE R2018x                                  Date 23-Nov-2024   Time 21:03:25
   For use by INDIAN INSTITUTE OF TECHNOLOGY under license from Dassault Systemes or its subsidiary.

                                                                                               STEP    1  INCREMENT    1
                                                                                          TIME COMPLETED IN THIS STEP   0.00    


                        S T E P       1     S T A T I C   A N A L Y S I S


                                                                                          

     AUTOMATIC TIME CONTROL WITH -
          A SUGGESTED INITIAL TIME INCREMENT OF                0.100    
          AND A TOTAL TIME PERIOD OF                            1.00    
          THE MINIMUM TIME INCREMENT ALLOWED IS                1.000E-05
          THE MAXIMUM TIME INCREMENT ALLOWED IS                 1.00    

     LINEAR EQUATION SOLVER TYPE         DIRECT SPARSE
  
                   M E M O R Y   E S T I M A T E
  
 PROCESS      FLOATING PT       MINIMUM MEMORY        MEMORY TO
              OPERATIONS           REQUIRED          MINIMIZE I/O
             PER ITERATION           (MB)               (MB)
  
     1          1.06E+10               37                196
  
 NOTE:
      (1) SINCE ABAQUS DOES NOT PRE-ALLOCATE MEMORY AND ONLY ALLOCATES MEMORY AS NEEDED DURING THE ANALYSIS,
          THE MEMORY REQUIREMENT PRINTED HERE CAN ONLY BE VIEWED AS A GENERAL GUIDELINE BASED ON THE BEST
          KNOWLEDGE AVAILABLE AT THE BEGINNING OF A STEP BEFORE THE SOLUTION PROCESS HAS BEGUN.
      (2) THE ESTIMATE IS NORMALLY UPDATED AT THE BEGINNING OF EVERY STEP. IT IS THE MAXIMUM VALUE OF THE
          ESTIMATE FROM THE CURRENT STEP TO THE LAST STEP OF THE ANALYSIS, WITH UNSYMMETRIC SOLUTION TAKEN
          INTO ACCOUNT IF APPLICABLE. 
      (3) SINCE THE ESTIMATE IS BASED ON THE ACTIVE DEGREES OF FREEDOM IN THE FIRST ITERATION OF THE 
          CURRENT STEP, THE MEMORY ESTIMATE MIGHT BE SIGNIFICANTLY DIFFERENT THAN ACTUAL USAGE FOR 
          PROBLEMS WITH SUBSTANTIAL CHANGES IN ACTIVE DEGREES OF FREEDOM BETWEEN STEPS (OR EVEN WITHIN
          THE SAME STEP). EXAMPLES ARE: PROBLEMS WITH SIGNIFICANT CONTACT CHANGES, PROBLEMS WITH MODEL
          CHANGE, PROBLEMS WITH BOTH STATIC STEP AND STEADY STATE DYNAMIC PROCEDURES WHERE ACOUSTIC 
          ELEMENTS WILL ONLY BE ACTIVATED IN THE STEADY STATE DYNAMIC STEPS.
      (4) FOR MULTI-PROCESS EXECUTION, THE ESTIMATED VALUE OF FLOATING POINT OPERATIONS FOR EACH PROCESS
          IS BASED ON AN INITIAL SCHEDULING OF OPERATIONS AND MIGHT NOT REFLECT THE ACTUAL FLOATING 
          POINT OPERATIONS COMPLETED ON EACH PROCESS. OPERATIONS ARE DYNAMICALLY BALANCED DURING EXECUTION, 
          SO THE ACTUAL BALANCE OF OPERATIONS BETWEEN PROCESSES IS EXPECTED TO BE BETTER THAN THE ESTIMATE
          PRINTED HERE.
      (5) THE UPPER LIMIT OF MEMORY THAT CAN BE ALLOCATED BY ABAQUS WILL IN GENERAL DEPEND ON THE VALUE OF
          THE "MEMORY" PARAMETER AND THE AMOUNT OF PHYSICAL MEMORY AVAILABLE ON THE MACHINE. PLEASE SEE
          THE "ABAQUS ANALYSIS USER'S MANUAL" FOR MORE DETAILS. THE ACTUAL USAGE OF MEMORY AND OF DISK
          SPACE FOR SCRATCH DATA WILL DEPEND ON THIS UPPER LIMIT AS WELL AS THE MEMORY REQUIRED TO MINIMIZE
          I/O. IF THE MEMORY UPPER LIMIT IS GREATER THAN THE MEMORY REQUIRED TO MINIMIZE I/O, THEN THE ACTUAL
          MEMORY USAGE WILL BE CLOSE TO THE ESTIMATED "MEMORY TO MINIMIZE I/O" VALUE, AND THE SCRATCH DISK
          USAGE WILL BE CLOSE-TO-ZERO; OTHERWISE, THE ACTUAL MEMORY USED WILL BE CLOSE TO THE PREVIOUSLY
          MENTIONED MEMORY LIMIT, AND THE SCRATCH DISK USAGE WILL BE ROUGHLY PROPORTIONAL TO THE DIFFERENCE
          BETWEEN THE ESTIMATED "MEMORY TO MINIMIZE I/O" AND THE MEMORY UPPER LIMIT. HOWEVER ACCURATE
          ESTIMATE OF THE SCRATCH DISK SPACE IS NOT POSSIBLE.
      (6) USING "*RESTART, WRITE" CAN GENERATE A LARGE AMOUNT OF DATA WRITTEN IN THE WORK DIRECTORY.


          THE ANALYSIS HAS BEEN COMPLETED



                              ANALYSIS COMPLETE
                              WITH      1 WARNING MESSAGES ON THE DAT FILE



     JOB TIME SUMMARY
       USER TIME (SEC)      =   15.500    
       SYSTEM TIME (SEC)    =  0.50000    
       TOTAL CPU TIME (SEC) =   16.000    
       WALLCLOCK TIME (SEC) =         17
