*Heading
** Job name: 120 Model name: 120
** Generated by: Abaqus/CAE 2018
*Preprint, echo=NO, model=NO, history=NO, contact=NO
**
** PARTS
**
*Part, name=P120
*End Part
**  
**
** ASSEMBLY
**
*Assembly, name=Assembly
**  
*Instance, name=P120-1, part=P120
*Node
      1,   268.467865,        232.5,   38.4615402
      2,   268.467865,        232.5,           0.
      3,    219.01326,   261.052643,           0.
      4,    219.01326,   261.052643,   38.4615402
      5,   268.467865,         155.,   38.4615402
      6,   268.467865,         155.,           0.
      7,   171.052368,    155.16655,           0.
      8,   125.816193,   154.963745,   56.2375031
      9,   134.233932,         310.,           0.
     10,   134.233932,         310.,   38.4615402
     11,   78.9611435,   278.088226,           0.
     12,   74.5476608,     275.5401,   63.5567131
     13,   134.233932,         310.,         100.
     14,    219.01326,   261.052643,         100.
     15,   121.779243,   302.809265,         100.
     16,   151.016754,   155.571136,         100.
     17,   268.467865,        232.5,         100.
     18,   268.467865,         155.,         100.
     19,   268.467865,         77.5,           0.
     20,    219.01326,   48.9473686,           0.
** ... 6323 like lines cut
*Element, type=C3D8R
   1,   92,  794, 3308,  722,    1,   46,  674,   65
   2,  794,  795, 3309, 3308,   46,   47,  675,  674
   3,  795,  796, 3310, 3309,   47,   48,  676,  675
   4,  796,  797, 3311, 3310,   48,   49,  677,  676
   5,  797,  104,  758, 3311,   49,    2,   50,  677
   6,  722, 3308, 3312,  723,   65,  674,  678,   64
   7, 3308, 3309, 3313, 3312,  674,  675,  679,  678
   8, 3309, 3310, 3314, 3313,  675,  676,  680,  679
   9, 3310, 3311, 3315, 3314,  676,  677,  681,  680
  10, 3311,  758,  759, 3315,  677,   50,   51,  681
  11,  723, 3312, 3316,  724,   64,  678,  682,   63
  12, 3312, 3313, 3317, 3316,  678,  679,  683,  682
  13, 3313, 3314, 3318, 3317,  679,  680,  684,  683
  14, 3314, 3315, 3319, 3318,  680,  681,  685,  684
  15, 3315,  759,  760, 3319,  681,   51,   52,  685
  16,  724, 3316, 3320,  725,   63,  682,  686,   62
  17, 3316, 3317, 3321, 3320,  682,  683,  687,  686
  18, 3317, 3318, 3322, 3321,  683,  684,  688,  687
  19, 3318, 3319, 3323, 3322,  684,  685,  689,  688
  20, 3319,  760,  761, 3323,  685,   52,   53,  689
** ... 5070 like lines cut
*Nset, nset=Set-1, generate
    1,  6343,     1
*Elset, elset=Set-1, generate
    1,  5090,     1
** Section: Section-1
*Solid Section, elset=Set-1, material=Material-1
,
*End Instance
**  
*Nset, nset=Set-1, instance=P120-1
    1,    2,    3,    4,    5,    6,    9,   10,   11,   12,   13,   14,   15,   17,   18,   19
   20,   21,   22,   23,   24,   25,   26,   27,   28,   29,   30,   31,   32,   33,   34,   35
   37,   39,   40,   41,   42,   43,   44,   45,   46,   47,   48,   49,   50,   51,   52,   53
   54,   55,   56,   57,   58,   59,   60,   61,   62,   63,   64,   65,   66,   67,   68,   69
   92,   93,   94,   95,   96,   97,  104,  105,  106,  107,  108,  109,  110,  111,  112,  113
  114,  115,  116,  117,  118,  119,  120,  121,  122,  123,  124,  125,  126,  127,  128,  129
  130,  131,  132,  133,  134,  135,  147,  148,  149,  150,  162,  163,  164,  165,  166,  167
  168,  169,  170,  171,  172,  173,  174,  175,  176,  177,  178,  179,  180,  181,  182,  183
  184,  185,  186,  187,  188,  189,  190,  191,  192,  193,  194,  195,  196,  197,  198,  199
  200,  201,  202,  203,  204,  205,  230,  231,  232,  233,  234,  235,  236,  237,  238,  239
  240,  241,  242,  243,  244,  245,  246,  247,  248,  255,  256,  257,  258,  259,  260,  261
  262,  263,  264,  265,  266,  267,  268,  269,  270,  271,  272,  273,  274,  275,  276,  277
  278,  279,  286,  287,  288,  289,  290,  291,  292,  293,  294,  295,  296,  297,  304,  305
  306,  307,  308,  309,  310,  311,  312,  313,  314,  315,  316,  317,  318,  319,  320,  321
  322,  323,  324,  325,  326,  327,  328,  340,  341,  342,  343,  344,  345,  346,  347,  348
  349,  350,  351,  352,  353,  354,  355,  356,  368,  369,  370,  371,  372,  373,  374,  375
  376,  377,  378,  379,  380,  381,  382,  383,  384,  385,  386,  387,  388,  389,  390,  391
  392,  393,  394,  395,  405,  406,  407,  408,  409,  410,  411,  412,  413,  414,  415,  416
  417,  418,  419,  420,  421,  422,  423,  424,  434,  435,  436,  437,  438,  439,  440,  441
  442,  443,  444,  445,  446,  447,  448,  449,  450,  451,  452,  453,  454,  455,  456,  457
** ... 59 like lines cut
*Elset, elset=Set-1, instance=P120-1
    1,    2,    3,    4,    5,    6,    7,    8,    9,   10,   11,   12,   13,   14,   15,   16
   17,   18,   19,   20,   21,   22,   23,   24,   25,   26,   27,   28,   29,   30,   31,   32
   33,   34,   35,   36,   37,   38,   39,   40,   71,   72,   73,   74,   75,  106,  107,  108
  109,  110,  141,  142,  143,  144,  145,  176,  177,  178,  179,  180,  211,  212,  213,  214
  215,  246,  247,  248,  249,  250,  251,  252,  253,  254,  255,  256,  257,  258,  259,  260
  261,  262,  263,  264,  265,  266,  267,  268,  269,  270,  271,  272,  273,  274,  275,  276
  277,  278,  279,  280,  281,  282,  283,  284,  285,  286,  287,  288,  289,  290,  291,  292
  293,  294,  295,  296,  297,  298,  299,  300,  301,  302,  303,  304,  305,  317,  329,  341
  353,  365,  377,  389,  401,  413,  425,  437,  449,  461,  473,  485,  497,  509,  521,  533
  545,  557,  569,  581,  593,  605,  617,  629,  641,  653,  665,  666,  667,  668,  669,  670
  671,  672,  673,  674,  675,  676,  677,  678,  679,  680,  681,  682,  683,  684,  685,  686
  687,  688,  689,  690,  691,  692,  693,  694,  695,  696,  697,  698,  699,  700,  701,  702
  703,  704,  705,  706,  707,  708,  709,  710,  711,  712,  713,  714,  715,  716,  717,  718
  719,  720,  721,  722,  723,  724,  725,  726,  727,  728,  729,  730,  731,  732,  733,  734
  735,  736,  737,  738,  739,  740,  741,  742,  743,  744,  745,  746,  747,  748,  749,  750
  751,  752,  753,  754,  755,  756,  757,  758,  759,  760,  761,  762,  763,  764,  765,  766
  767,  768,  769,  858,  859,  860,  861,  862,  863,  864,  865,  954,  955,  956,  957,  958
  959,  960,  961, 1050, 1051, 1052, 1053, 1054, 1055, 1056, 1057, 1146, 1147, 1148, 1149, 1150
 1151, 1152, 1153, 1242, 1243, 1244, 1245, 1246, 1247, 1248, 1249, 1338, 1339, 1340, 1341, 1342
 1343, 1344, 1345, 1346, 1347, 1348, 1349, 1350, 1351, 1352, 1353, 1354, 1355, 1356, 1357, 1358
** ... 48 like lines cut
*Nset, nset=Set-2, instance=P120-1
    2,    3,    6,    7,    9,   11,   19,   20,   23,   24,   27,   28,   31,   50,   51,   52
   53,   54,   55,   70,   71,   72,   73,   74,   75,   98,   99,  100,  101,  102,  103,  104
  105,  106,  107,  108,  109,  110,  111,  112,  113,  114,  115,  116,  117,  118,  119,  120
  136,  137,  138,  139,  140,  141,  142,  143,  144,  145,  146,  168,  169,  170,  171,  172
  173,  268,  269,  270,  271,  272,  273,  274,  275,  276,  277,  278,  279,  280,  281,  282
  283,  284,  285,  312,  313,  314,  315,  316,  317,  318,  319,  320,  321,  322,  323,  324
  325,  326,  327,  328,  329,  330,  331,  332,  333,  334,  335,  336,  337,  338,  339,  376
  377,  378,  379,  380,  381,  382,  383,  384,  385,  386,  387,  388,  389,  390,  391,  392
  393,  394,  395,  396,  397,  398,  399,  400,  401,  402,  403,  404,  442,  443,  444,  445
  446,  447,  448,  449,  450,  451,  452,  453,  454,  455,  456,  457,  458,  459,  460,  461
  758,  759,  760,  761,  762,  763,  764,  765,  766,  767,  768,  769,  770,  771,  772,  773
  774,  775,  776,  777,  778,  779,  780,  781,  782,  783,  784,  785,  786,  787,  788,  789
  790,  791,  792,  793,  954,  955,  956,  957,  958,  959,  960,  961,  962,  963,  964,  965
  966,  967,  968,  969,  970,  971,  972,  973,  974,  975,  976,  977,  978,  979,  980,  981
  982,  983,  984,  985,  986,  987,  988,  989,  990,  991,  992,  993,  994,  995,  996,  997
  998,  999, 1000, 1001, 1002, 1003, 1004, 1005, 1006, 1007, 1008, 1009, 1010, 1011, 1012, 1013
 1014, 1015, 1016, 1017, 1018, 1019, 1552, 1553, 1554, 1555, 1556, 1557, 1558, 1559, 1560, 1561
 1562, 1563, 1564, 1565, 1566, 1567, 1568, 1569, 1570, 1571, 1572, 1573, 1574, 1575, 1576, 1577
 1578, 1579, 1580, 1581, 1582, 1583, 1584, 1585, 1586, 1587, 1696, 1697, 1698, 1699, 1700, 1701
 1702, 1703, 1704, 1705, 1706, 1707, 1708, 1709, 1710, 1711, 1712, 1713, 1714, 1715, 1716, 1717
** ... 16 like lines cut
*Elset, elset=Set-2, instance=P120-1
    5,   10,   15,   20,   25,   30,   35,   40,   45,   50,   55,   60,   65,   70,   75,   80
   85,   90,   95,  100,  105,  110,  115,  120,  125,  130,  135,  140,  145,  150,  155,  160
  165,  170,  175,  180,  185,  190,  195,  200,  205,  210,  215,  220,  225,  230,  235,  240
  245,  246,  247,  248,  249,  250,  251,  252,  253,  254,  255,  256,  257,  306,  307,  308
  309,  310,  311,  312,  313,  314,  315,  316,  317,  366,  367,  368,  369,  370,  371,  372
  373,  374,  375,  376,  377,  426,  427,  428,  429,  430,  431,  432,  433,  434,  435,  436
  437,  486,  487,  488,  489,  490,  491,  492,  493,  494,  495,  496,  497,  546,  547,  548
  549,  550,  551,  552,  553,  554,  555,  556,  557,  606,  607,  608,  609,  610,  611,  612
  613,  614,  615,  616,  617, 1730, 1731, 1732, 1733, 1734, 1735, 1736, 1737, 1738, 1739, 1740
 1741, 1742, 1743, 1744, 1745, 1746, 1747, 1748, 1749, 1750, 1751, 1752, 1753, 1754, 1755, 1756
 1757, 1758, 1759, 1760, 1761, 1762, 1763, 1764, 1765, 1766, 1767, 1768, 1769, 1770, 1771, 1772
 1773, 1774, 1775, 1776, 1777, 1778, 1975, 1976, 1977, 1978, 1979, 1980, 1981, 1982, 1983, 1984
 1985, 1986, 1987, 1988, 1989, 1990, 1991, 1992, 1993, 1994, 1995, 1996, 1997, 1998, 1999, 2000
 2001, 2002, 2003, 2004, 2005, 2006, 2007, 2008, 2009, 2010, 2011, 2012, 2013, 2014, 2015, 2016
 2017, 2018, 2019, 2020, 2021, 2022, 2023, 2024, 2025, 2026, 2027, 2028, 2029, 2030, 2031, 2032
 2033, 2034, 2035, 2036, 2037, 2038, 2039, 2040, 2041, 2042, 2043, 2044, 2045, 2046, 2047, 2048
 2049, 2050, 2051, 2052, 2053, 2054, 2055, 2056, 2057, 2058, 2395, 2396, 2397, 2398, 2399, 2400
 2401, 2402, 2403, 2404, 2405, 2406, 2407, 2408, 2409, 2410, 2411, 2412, 2413, 2414, 2415, 2416
 2417, 2418, 2419, 2420, 2421, 2422, 2423, 2424, 2425, 2426, 2427, 2428, 2429, 2430, 2431, 2432
 2433, 2434, 2435, 2436, 2437, 2438, 2439, 2440, 2441, 2442, 2443, 2444, 2445, 2446, 2447, 2448
** ... 12 like lines cut
*Elset, elset=_Surf-1_S4, internal, instance=P120-1, generate
  673,  1337,     8
*Elset, elset=_Surf-1_S3, internal, instance=P120-1
 1338, 1339, 1340, 1341, 1342, 1343, 1344, 1394, 1395, 1396, 1397, 1398, 1399, 1400, 1450, 1451
 1452, 1453, 1454, 1455, 1456, 1506, 1507, 1508, 1509, 1510, 1511, 1512, 1562, 1563, 1564, 1565
 1566, 1567, 1568, 1618, 1619, 1620, 1621, 1622, 1623, 1624, 1674, 1675, 1676, 1677, 1678, 1679
 1680, 3595, 3596, 3597, 3598, 3599, 3600, 3601, 3651, 3652, 3653, 3654, 3655, 3656, 3657, 3707
 3708, 3709, 3710, 3711, 3712, 3713, 3763, 3764, 3765, 3766, 3767, 3768, 3769, 3819, 3820, 3821
 3822, 3823, 3824, 3825, 3875, 3876, 3877, 3878, 3879, 3880, 3881, 3931, 3932, 3933, 3934, 3935
 3936, 3937
*Elset, elset=_Surf-1_S2, internal, instance=P120-1
 3987, 3988, 3989, 3990, 3991, 3992, 3993, 3994, 3995, 3996, 3997, 3998, 4083, 4084, 4085, 4086
 4087, 4088, 4089, 4090, 4091, 4092, 4093, 4094, 4179, 4180, 4181, 4182, 4183, 4184, 4185, 4186
 4187, 4188, 4189, 4190, 4191, 4192, 4193, 4194, 4195, 4196, 4197, 4198, 4199, 4200, 4201, 4202
 4203, 4204, 4205, 4206, 4207, 4208, 4209, 4210, 4211, 4212, 4213, 4214, 4215, 4216, 4217, 4218
 4219, 4220, 4221, 4222, 4223, 4224, 4225, 4226, 4227, 4228, 4229, 4230, 4231, 4232, 4233, 4234
 4235, 4236, 4237, 4238, 4239, 4240, 4241, 4242, 4243, 4244, 4245, 4246, 4247, 4248, 4249, 4250
 4251, 4252, 4253, 4254, 4255, 4256, 4257, 4258, 4259, 4260, 4261, 4262
*Surface, type=ELEMENT, name=Surf-1
_Surf-1_S4, S4
_Surf-1_S3, S3
_Surf-1_S2, S2
*End Assembly
** 
** MATERIALS
** 
*Material, name=Material-1
*Elastic
 31622.8, 0.2
** ----------------------------------------------------------------
** 
** STEP: Step-1
** 
*Step, name=Step-1, nlgeom=NO
*Static
0.1, 1., 1e-05, 1.
** 
** BOUNDARY CONDITIONS
** 
** Name: BC-1 Type: Symmetry/Antisymmetry/Encastre
*Boundary
Set-1, ZASYMM
** Name: BC-2 Type: Symmetry/Antisymmetry/Encastre
*Boundary
Set-2, ENCASTRE
** 
** LOADS
** 
** Name: Load-1   Type: Pressure
*Dsload
Surf-1, P, 0.8
** 
** OUTPUT REQUESTS
** 
*Restart, write, frequency=0
** 
** FIELD OUTPUT: F-Output-2
** 
*Output, field
*Node Output
U, 
*Element Output, directions=YES
E, S
** 
** FIELD OUTPUT: F-Output-1
** 
*Output, field, variable=PRESELECT
** 
** HISTORY OUTPUT: H-Output-1
** 
*Output, history, variable=PRESELECT
*End Step
