1

   Abaqus 3DEXPERIENCE R2018x                                  Date 23-Nov-2024   Time 21:10:30
   For use by INDIAN INSTITUTE OF TECHNOLOGY under license from Dassault Systemes or its subsidiary.



                         The Abaqus Software is a product of:

                           Dassault Systemes SIMULIA Corp.
                           1301 Atwood Avenue, Suite 101W
                              Johnston, RI 02919, USA
 


                   The Abaqus Software is available only under license
                   from Dassault Systemes or its subsidiary and may be
                   used or reproduced only in accordance with the terms
                   of such license.
 
                          On machine DESKTOP-M4VAJAV 
                          you are authorized to run
                          Abaqus/Standard until 09-Apr-2025

                          Your site id is: 200000000145531 


 
                    For assistance or any other information you may
                    obtain contact information for your local office
                    from the world wide web at:

                      http://www.3ds.com/products/simulia/locations/

 
                * * * * * * * * * * * * * * * * * * * * * * * * * * * * * * 
                *                                                         * 
                *                   *****************                     * 
                *                   *  N O T I C E  *                     * 
                *                   *****************                     * 
                *                                                         * 
                *                                                         * 
                *               Abaqus 3DEXPERIENCE R2018x                * 
                *                                                         * 
                *          BUILD ID: 2017_11_07-22.51.41 127140           * 
                *                                                         * 
                *                                                         * 
                *  Please make sure you are using                         * 
                *  release 3DEXPERIENCE R2018x manuals                    * 
                *  plus the notes accompanying this release.              * 
                *                                                         * 
                *                                                         * 
                *                                                         * 
                *                                                         * 
                *                                                         * 
                *   This program may not be used for commercial purposes  * 
                *           without payment of a commercial fee.          * 
                *                                                         * 
                * * * * * * * * * * * * * * * * * * * * * * * * * * * * * * 


 



     PROCESSING PART, INSTANCE, AND ASSEMBLY INFORMATION
   *******************************************************


     END PROCESSING PART, INSTANCE, AND ASSEMBLY INFORMATION
   ***********************************************************




     OPTIONS BEING PROCESSED
   ***************************


  *Heading
  *Node
  *Element, type=C3D8R
  *Nset, nset=ASSEMBLY_P130-1_SET-1
  *Elset, elset=ASSEMBLY_P130-1_SET-1
  *Nset, nset=ASSEMBLY_SET-1
  *Nset, nset=ASSEMBLY_SET-2
  *Elset, elset=ASSEMBLY_SET-1
  *Elset, elset=ASSEMBLY_SET-2
  *Elset, elset=ASSEMBLY__SURF-1_S3
  *Elset, elset=ASSEMBLY__SURF-1_S4
  *Elset, elset=ASSEMBLY__SURF-2_S3
  *Elset, elset=ASSEMBLY__SURF-2_S4
  *material, name=MATERIAL-1
  *elastic
  *solidsection, elset=ASSEMBLY_P130-1_SET-1, material=MATERIAL-1
  *solidsection, elset=ASSEMBLY_P130-1_SET-1, material=MATERIAL-1
  *surface, type=ELEMENT, name=ASSEMBLY_SURF-1
  *surface, type=ELEMENT, name=ASSEMBLY_SURF-2
  *surface, type=ELEMENT, name=ASSEMBLY_SURF-1
  *surface, type=ELEMENT, name=ASSEMBLY_SURF-2
  *boundary
  *boundary
  *boundary
  *boundary
  *surface, type=ELEMENT, name=ASSEMBLY_SURF-1
  *surface, type=ELEMENT, name=ASSEMBLY_SURF-2
  *output, field
  *output, field, variable=PRESELECT
  *output, history, variable=PRESELECT
  *elementoutput, directions=YES
  *output, field
  *output, field, variable=PRESELECT
  *output, history, variable=PRESELECT
  *elementoutput, directions=YES
  *output, field
  *output, field, variable=PRESELECT
  *output, history, variable=PRESELECT
  *elementoutput, directions=YES
  
                               E L E M E N T   Q U A L I T Y  C H E C K S        
  
  
 ***NOTES: DISTORTED ISOPARAMETRIC ELEMENTS: ANGLE BETWEEN ISOPARAMETRIC LINES 
           IS LESS THAN 45 DEGREES OR GREATER THAN 135 DEGREES.
  
           TETRAHEDRAL QUALITY MEASURE: VOLUME OF TETRAHEDRON DIVIDED BY THE 
           VOLUME OF EQUILATERAL TETRAHEDRON WITH SAME CIRCUMSPHERE RADIUS; 
           0 FOR DEGENERATE TETRAHEDRON AND 1 FOR EQUILATERIAL TETRAHEDRON. IT 
           IS RECOMMENDED THAT THE TETRAHEDRAL QUALITY MEASURE BE GREATER THAN 
           0.02, THE MIN INTERIOR (DIHEDRAL) ANGLE BE GREATER THAN 10 DEGREES, 
           AND THE MAX INTERIOR (DIHEDRAL) ANGLE BE LESS THAN 160 DEGREES. 
  
           MODIFIED TETRAHEDRAL QUALITY MEASURE: ANGLES BETWEEN THE TWO LINE 
           SEGMENTS ON EACH EDGE; THE EDGES OF MODIFIED TETRAHEDRAL SHOULD BE 
           AS STRAIGHT AS POSSIBLE. IT IS RECOMMENDED THAT THE ANGLE BETWEEN 
           THE TWO LINE SEGMENTS ON EACH EDGE IS BETWEEN 160 AND 180 DEGREES. 
  
           TRIANGULAR QUALITY MEASURE: AREA OF TRIANGLE DIVIDED BY THE AREA OF 
           EQUILATERAL TRIANGLE WITH SAME CIRCUMCIRCLE RADIUS; 0 FOR DEGENERATE 
           TRIANGLE AND 1 FOR EQUILATERAL TRIANGLE. IT IS RECOMMENDED THAT THE
           TRIANGULAR QUALITY MEASURE BE GREATER THAN 0.01, THE MIN INTERIOR 
           ANGLE BE GREATER THAN 10 DEGREES, AND THE MAX INTERIOR ANGLE BE LESS 
           THAN 160 DEGREES. 
  
           NODAL ADJUSTMENTS ARISING FROM CONTACT INTERACTIONS AND/OR TIE 
           CONSTRAINTS CAN CAUSE SEVERE ELEMENT DISTORTION. IT MAY BE NECESSARY 
           TO REMESH IN ORDER TO REDUCE THE AMOUNT OF ADJUSTMENT. 

 ***WARNING: 224 elements are distorted. Either the isoparametric angles are 
             out of the suggested limits or the triangular or tetrahedral 
             quality measure is bad. The elements have been identified in 
             element set WarnElemDistorted.
  
 --------------------------------------------------------------------------------
 Distorted isoparametric elements
  
     Element       Min/max angle   Adjusted nodes 
 ---------------- ---------------- -------------- 
      P130-1.4537          44.5261       NO       
      P130-1.4541           43.625       NO       
      P130-1.4545          43.0045       NO       
      P130-1.4549          42.6602       NO       
      P130-1.4553          42.4972       NO       
      P130-1.4557          42.4286       NO       
      P130-1.4561          42.4021       NO       
      P130-1.4565          42.3925       NO       
      P130-1.4569           42.389       NO       
      P130-1.4573          42.3899       NO       
      P130-1.4577          42.4036       NO       
      P130-1.4581          42.4461       NO       
      P130-1.4585           42.513       NO       
      P130-1.4589          41.9872       NO       
      P130-1.4593          41.6241       NO       
      P130-1.4597          40.7514       NO       
      P130-1.4601          39.9549       NO       
      P130-1.4604          44.7736       NO       
      P130-1.4605          39.4059       NO       
      P130-1.4608          44.4511       NO       
      P130-1.4609          39.0974       NO       
      P130-1.4612          44.3191       NO       
      P130-1.4613          38.9494       NO       
      P130-1.4616          44.2724       NO       
      P130-1.4617          38.8862       NO       
      P130-1.4620          44.2574       NO       
      P130-1.4621          38.8614       NO       
      P130-1.4624          44.2527       NO       
      P130-1.4625          38.8523       NO       
      P130-1.4628          44.2509       NO       
      P130-1.4629           38.849       NO       
      P130-1.4632          44.2514       NO       
      P130-1.4633          38.8499       NO       
      P130-1.4636          44.2619       NO       
      P130-1.4637          38.8612       NO       
      P130-1.4640          44.3062       NO       
      P130-1.4641          38.8938       NO       
      P130-1.4644          44.4301       NO       
      P130-1.4645          38.9388       NO       
      P130-1.4648          44.0579       NO       
      P130-1.4649          38.4441       NO       
      P130-1.4652          44.0524       NO       
      P130-1.4653          36.8192       NO       
      P130-1.4656          43.3759       NO       
      P130-1.4657          36.1188       NO       
      P130-1.4660           42.643       NO       
      P130-1.4661          35.5218       NO       
      P130-1.4664          42.1257       NO       
      P130-1.4665           35.113       NO       
      P130-1.4668          41.8458       NO       
      P130-1.4669          34.8808       NO       
      P130-1.4672          41.7216       NO       
      P130-1.4673          34.7676       NO       
      P130-1.4676          41.6737       NO       
      P130-1.4677          34.7186       NO       
      P130-1.4680          41.6566       NO       
      P130-1.4681          34.6991       NO       
      P130-1.4684          41.6507       NO       
      P130-1.4685          34.6918       NO       
      P130-1.4688          41.6483       NO       
      P130-1.4689           34.689       NO       
      P130-1.4692          41.6478       NO       
      P130-1.4693          34.6889       NO       
      P130-1.4696           41.654       NO       
      P130-1.4697          34.6951       NO       
      P130-1.4700          41.6823       NO       
      P130-1.4701          34.7123       NO       
      P130-1.4704          41.7654       NO       
      P130-1.4705          34.7263       NO       
      P130-1.4708          41.4372       NO       
      P130-1.4709          34.3085       NO       
      P130-1.5542          44.5092       NO       
      P130-1.5543          44.0197       NO       
      P130-1.5544          43.8539       NO       
      P130-1.5545          43.7926       NO       
      P130-1.5546            43.77       NO       
      P130-1.5547          43.7621       NO       
      P130-1.5548          43.7595       NO       
      P130-1.5549          43.7586       NO       
      P130-1.5550          43.7585       NO       
      P130-1.5551          43.7587       NO       
      P130-1.5552          43.7606       NO       
      P130-1.5553          43.7806       NO       
      P130-1.5554          43.9367       NO       
      P130-1.5555          44.5396       NO       
      P130-1.5606          41.0513       NO       
      P130-1.5607           40.555       NO       
      P130-1.5608          40.3892       NO       
      P130-1.5609          40.3281       NO       
      P130-1.5610          40.3055       NO       
      P130-1.5611          40.2976       NO       
      P130-1.5612          40.2949       NO       
      P130-1.5613           40.294       NO       
      P130-1.5614          40.2938       NO       
      P130-1.5615          40.2941       NO       
      P130-1.5616          40.2961       NO       
      P130-1.5617          40.3173       NO       
      P130-1.5618           40.481       NO       
      P130-1.5619          41.1021       NO       
      P130-1.5620          42.2552       NO       
      P130-1.5621          42.7142       NO       
      P130-1.5670          37.5882       NO       
      P130-1.5671          37.1401       NO       
      P130-1.5672           36.993       NO       
      P130-1.5673          36.9385       NO       
      P130-1.5674          36.9178       NO       
      P130-1.5675          36.9104       NO       
      P130-1.5676          36.9079       NO       
      P130-1.5677           36.907       NO       
      P130-1.5678          36.9068       NO       
      P130-1.5679          36.9071       NO       
      P130-1.5680          36.9093       NO       
      P130-1.5681          36.9312       NO       
      P130-1.5682          37.0923       NO       
      P130-1.5683          37.6816       NO       
      P130-1.5684          38.7371       NO       
      P130-1.5685          39.1766       NO       
      P130-1.5686          43.6886       NO       
      P130-1.5687          43.8058       NO       
      P130-1.5688          43.8196       NO       
      P130-1.5689          43.7961       NO       
      P130-1.5690          43.7776       NO       
      P130-1.5691          43.7691       NO       
      P130-1.5692           43.766       NO       
      P130-1.5693          43.7652       NO       
      P130-1.5694          43.7656       NO       
      P130-1.5695          43.7685       NO       
      P130-1.5696           43.782       NO       
      P130-1.5697          43.8649       NO       
      P130-1.5698          44.2065       NO       
      P130-1.5734          33.6519       NO       
      P130-1.5735          33.3398       NO       
      P130-1.5736          33.2377       NO       
      P130-1.5737          33.1982       NO       
      P130-1.5738          33.1824       NO       
      P130-1.5739          33.1765       NO       
      P130-1.5740          33.1744       NO       
      P130-1.5741          33.1737       NO       
      P130-1.5742          33.1735       NO       
      P130-1.5743          33.1738       NO       
      P130-1.5744          33.1757       NO       
      P130-1.5745          33.1937       NO       
      P130-1.5746          33.3276       NO       
      P130-1.5747          33.7967       NO       
      P130-1.5748          34.6081       NO       
      P130-1.5749          34.9841       NO       
      P130-1.5750          41.0274       NO       
      P130-1.5751          41.0067       NO       
      P130-1.5752          40.9924       NO       
      P130-1.5753           40.965       NO       
      P130-1.5754           40.946       NO       
      P130-1.5755          40.9372       NO       
      P130-1.5756          40.9339       NO       
      P130-1.5757          40.9329       NO       
      P130-1.5758          40.9333       NO       
      P130-1.5759           40.936       NO       
      P130-1.5760          40.9484       NO       
      P130-1.5761          41.0258       NO       
      P130-1.5762           41.347       NO       
      P130-1.5763          42.0847       NO       
      P130-1.5764          43.0671       NO       
      P130-1.5765          43.5334       NO       
      P130-1.8402          29.4608       NO       
      P130-1.8403          38.2585       NO       
      P130-1.8406          29.0723       NO       
      P130-1.8407          37.5425       NO       
      P130-1.8410          28.6138       NO       
      P130-1.8411          36.7281       NO       
      P130-1.8414          28.4115       NO       
      P130-1.8415          36.2771       NO       
      P130-1.8418          28.3746       NO       
      P130-1.8419          36.1404       NO       
      P130-1.8422          28.3718       NO       
      P130-1.8423          36.1191       NO       
      P130-1.8426          28.3715       NO       
      P130-1.8427          36.1155       NO       
      P130-1.8430          28.3714       NO       
      P130-1.8431          36.1146       NO       
      P130-1.8434          28.3714       NO       
      P130-1.8435          36.1146       NO       
      P130-1.8438          28.3717       NO       
      P130-1.8439           36.115       NO       
      P130-1.8442          28.3725       NO       
      P130-1.8443          36.1168       NO       
      P130-1.8446          28.3751       NO       
      P130-1.8447          36.1221       NO       
      P130-1.8450          28.3821       NO       
      P130-1.8451          36.1356       NO       
      P130-1.8454          28.3994       NO       
      P130-1.8455          36.1611       NO       
      P130-1.8458          28.4367       NO       
      P130-1.8459          36.1857       NO       
      P130-1.8462          28.5166       NO       
      P130-1.8463           36.175       NO       
      P130-1.8658          28.8351       NO       
      P130-1.8659          29.1118       NO       
      P130-1.8660          29.1233       NO       
      P130-1.8661          29.1212       NO       
      P130-1.8662          29.1213       NO       
      P130-1.8663          29.1225       NO       
      P130-1.8664          29.1238       NO       
      P130-1.8665          29.1269       NO       
      P130-1.8666          29.1355       NO       
      P130-1.8667          29.1583       NO       
      P130-1.8668          29.2141       NO       
      P130-1.8669           29.336       NO       
      P130-1.8670          29.5669       NO       
      P130-1.8671          29.9373       NO       
      P130-1.8672          30.4443       NO       
      P130-1.8673          36.5519       NO       
      P130-1.8674          36.9363       NO       
      P130-1.8675          36.9236       NO       
      P130-1.8676          36.9206       NO       
      P130-1.8677          36.9234       NO       
      P130-1.8678          36.9257       NO       
      P130-1.8679          36.9272       NO       
      P130-1.8680          36.9306       NO       
      P130-1.8681          36.9409       NO       
      P130-1.8682          36.9711       NO       
      P130-1.8683          37.0523       NO       
      P130-1.8684           37.247       NO       
      P130-1.8685          37.6392       NO       
      P130-1.8686          38.2751       NO       
      P130-1.8687          39.0885       NO       
  
  
  *amplitude, name=AMP-1
  *Step, name=Step-1, nlgeom=NO
  *output, field
  *output, field, variable=PRESELECT
  *output, history, variable=PRESELECT
  *Step, name=Step-1, nlgeom=NO
  *Step, name=Step-1, nlgeom=NO
  *static
  *boundary
  *boundary
  *dsload
  *output, field
  *nodeoutput
  *elementoutput, directions=YES
  *output, field, variable=PRESELECT
  *output, history, variable=PRESELECT
  *endstep
  *Step, name=Step-1, nlgeom=NO
  *static
  *boundary
  *boundary
  *endstep

     - (RAMP) OR (STEP) - INDICATE USE OF DEFAULT AMPLITUDES ASSOCIATED WITH THE STEP



                            P R O B L E M   S I Z E


          NUMBER OF ELEMENTS IS                                  8897
          NUMBER OF NODES IS                                    10528
          NUMBER OF NODES DEFINED BY THE USER                   10528
          TOTAL NUMBER OF VARIABLES IN THE MODEL                31584
          (DEGREES OF FREEDOM PLUS MAX NO. OF ANY LAGRANGE MULTIPLIER
           VARIABLES. INCLUDE *PRINT,SOLVE=YES TO GET THE ACTUAL NUMBER.)



                              END OF USER INPUT PROCESSING



     JOB TIME SUMMARY
       USER TIME (SEC)      =   1.9000    
       SYSTEM TIME (SEC)    =  0.60000    
       TOTAL CPU TIME (SEC) =   2.5000    
       WALLCLOCK TIME (SEC) =          3
1

   Abaqus 3DEXPERIENCE R2018x                                  Date 23-Nov-2024   Time 21:10:37
   For use by INDIAN INSTITUTE OF TECHNOLOGY under license from Dassault Systemes or its subsidiary.

                                                                                               STEP    1  INCREMENT    1
                                                                                          TIME COMPLETED IN THIS STEP   0.00    


                        S T E P       1     S T A T I C   A N A L Y S I S


                                                                                          

     AUTOMATIC TIME CONTROL WITH -
          A SUGGESTED INITIAL TIME INCREMENT OF                0.100    
          AND A TOTAL TIME PERIOD OF                            1.00    
          THE MINIMUM TIME INCREMENT ALLOWED IS                1.000E-05
          THE MAXIMUM TIME INCREMENT ALLOWED IS                 1.00    

     LINEAR EQUATION SOLVER TYPE         DIRECT SPARSE
  
                   M E M O R Y   E S T I M A T E
  
 PROCESS      FLOATING PT       MINIMUM MEMORY        MEMORY TO
              OPERATIONS           REQUIRED          MINIMIZE I/O
             PER ITERATION           (MB)               (MB)
  
     1          1.25E+10               38                207
  
 NOTE:
      (1) SINCE ABAQUS DOES NOT PRE-ALLOCATE MEMORY AND ONLY ALLOCATES MEMORY AS NEEDED DURING THE ANALYSIS,
          THE MEMORY REQUIREMENT PRINTED HERE CAN ONLY BE VIEWED AS A GENERAL GUIDELINE BASED ON THE BEST
          KNOWLEDGE AVAILABLE AT THE BEGINNING OF A STEP BEFORE THE SOLUTION PROCESS HAS BEGUN.
      (2) THE ESTIMATE IS NORMALLY UPDATED AT THE BEGINNING OF EVERY STEP. IT IS THE MAXIMUM VALUE OF THE
          ESTIMATE FROM THE CURRENT STEP TO THE LAST STEP OF THE ANALYSIS, WITH UNSYMMETRIC SOLUTION TAKEN
          INTO ACCOUNT IF APPLICABLE. 
      (3) SINCE THE ESTIMATE IS BASED ON THE ACTIVE DEGREES OF FREEDOM IN THE FIRST ITERATION OF THE 
          CURRENT STEP, THE MEMORY ESTIMATE MIGHT BE SIGNIFICANTLY DIFFERENT THAN ACTUAL USAGE FOR 
          PROBLEMS WITH SUBSTANTIAL CHANGES IN ACTIVE DEGREES OF FREEDOM BETWEEN STEPS (OR EVEN WITHIN
          THE SAME STEP). EXAMPLES ARE: PROBLEMS WITH SIGNIFICANT CONTACT CHANGES, PROBLEMS WITH MODEL
          CHANGE, PROBLEMS WITH BOTH STATIC STEP AND STEADY STATE DYNAMIC PROCEDURES WHERE ACOUSTIC 
          ELEMENTS WILL ONLY BE ACTIVATED IN THE STEADY STATE DYNAMIC STEPS.
      (4) FOR MULTI-PROCESS EXECUTION, THE ESTIMATED VALUE OF FLOATING POINT OPERATIONS FOR EACH PROCESS
          IS BASED ON AN INITIAL SCHEDULING OF OPERATIONS AND MIGHT NOT REFLECT THE ACTUAL FLOATING 
          POINT OPERATIONS COMPLETED ON EACH PROCESS. OPERATIONS ARE DYNAMICALLY BALANCED DURING EXECUTION, 
          SO THE ACTUAL BALANCE OF OPERATIONS BETWEEN PROCESSES IS EXPECTED TO BE BETTER THAN THE ESTIMATE
          PRINTED HERE.
      (5) THE UPPER LIMIT OF MEMORY THAT CAN BE ALLOCATED BY ABAQUS WILL IN GENERAL DEPEND ON THE VALUE OF
          THE "MEMORY" PARAMETER AND THE AMOUNT OF PHYSICAL MEMORY AVAILABLE ON THE MACHINE. PLEASE SEE
          THE "ABAQUS ANALYSIS USER'S MANUAL" FOR MORE DETAILS. THE ACTUAL USAGE OF MEMORY AND OF DISK
          SPACE FOR SCRATCH DATA WILL DEPEND ON THIS UPPER LIMIT AS WELL AS THE MEMORY REQUIRED TO MINIMIZE
          I/O. IF THE MEMORY UPPER LIMIT IS GREATER THAN THE MEMORY REQUIRED TO MINIMIZE I/O, THEN THE ACTUAL
          MEMORY USAGE WILL BE CLOSE TO THE ESTIMATED "MEMORY TO MINIMIZE I/O" VALUE, AND THE SCRATCH DISK
          USAGE WILL BE CLOSE-TO-ZERO; OTHERWISE, THE ACTUAL MEMORY USED WILL BE CLOSE TO THE PREVIOUSLY
          MENTIONED MEMORY LIMIT, AND THE SCRATCH DISK USAGE WILL BE ROUGHLY PROPORTIONAL TO THE DIFFERENCE
          BETWEEN THE ESTIMATED "MEMORY TO MINIMIZE I/O" AND THE MEMORY UPPER LIMIT. HOWEVER ACCURATE
          ESTIMATE OF THE SCRATCH DISK SPACE IS NOT POSSIBLE.
      (6) USING "*RESTART, WRITE" CAN GENERATE A LARGE AMOUNT OF DATA WRITTEN IN THE WORK DIRECTORY.


          THE ANALYSIS HAS BEEN COMPLETED



                              ANALYSIS COMPLETE
                              WITH      1 WARNING MESSAGES ON THE DAT FILE



     JOB TIME SUMMARY
       USER TIME (SEC)      =   18.400    
       SYSTEM TIME (SEC)    =  0.70000    
       TOTAL CPU TIME (SEC) =   19.100    
       WALLCLOCK TIME (SEC) =         20
