*Heading
** Job name: 130 Model name: 130
** Generated by: Abaqus/CAE 2018
*Preprint, echo=NO, model=NO, history=NO, contact=NO
**
** PARTS
**
*Part, name=P130
*End Part
**  
**
** ASSEMBLY
**
*Assembly, name=Assembly
**  
*Instance, name=P130-1, part=P130
*Node
      1,         250.,           0.,    63.636364
      2,         250.,           0.,           0.
      3,         250.,   129.032257,           0.
      4,         250.,   129.032257,    63.636364
      5,   103.448273,           0.,           0.
      6,   103.448273,   129.032257,           0.
      7,   98.2637405,   129.032242,   79.5096359
      8,   98.8582916,           0.,   78.6081924
      9,         250.,         250.,           0.
     10,         250.,         250.,    63.636364
     11,   103.448273,         250.,           0.
     12,   98.7827454,         250.,    78.398201
     13,         250.,         250.,         100.
     14,         250.,   129.032257,         100.
     15,   127.222221,         250.,         100.
     16,   127.222221,   129.032257,         100.
     17,         250.,           0.,         100.
     18,   127.222221,           0.,         100.
     19,           0.,           0.,           0.
     20,           0.,   129.032257,           0.
** ... 10508 like lines cut
*Element, type=C3D8R
   1,   134,  1337,  4439,   857,     1,    34,   677,    75
   2,  1337,  1338,  4440,  4439,    34,    35,   678,   677
   3,  1338,  1339,  4441,  4440,    35,    36,   679,   678
   4,  1339,  1340,  4442,  4441,    36,    37,   680,   679
   5,  1340,  1341,  4443,  4442,    37,    38,   681,   680
   6,  1341,  1342,  4444,  4443,    38,    39,   682,   681
   7,  1342,   166,  1097,  4444,    39,     2,    40,   682
   8,   857,  4439,  4445,   858,    75,   677,   683,    74
   9,  4439,  4440,  4446,  4445,   677,   678,   684,   683
  10,  4440,  4441,  4447,  4446,   678,   679,   685,   684
  11,  4441,  4442,  4448,  4447,   679,   680,   686,   685
  12,  4442,  4443,  4449,  4448,   680,   681,   687,   686
  13,  4443,  4444,  4450,  4449,   681,   682,   688,   687
  14,  4444,  1097,  1098,  4450,   682,    40,    41,   688
  15,   858,  4445,  4451,   859,    74,   683,   689,    73
  16,  4445,  4446,  4452,  4451,   683,   684,   690,   689
  17,  4446,  4447,  4453,  4452,   684,   685,   691,   690
  18,  4447,  4448,  4454,  4453,   685,   686,   692,   691
  19,  4448,  4449,  4455,  4454,   686,   687,   693,   692
  20,  4449,  4450,  4456,  4455,   687,   688,   694,   693
** ... 8877 like lines cut
*Nset, nset=Set-1, generate
     1,  10528,      1
*Elset, elset=Set-1, generate
    1,  8897,     1
** Section: Section-1
*Solid Section, elset=Set-1, material=Material-1
,
*End Instance
**  
*Nset, nset=Set-1, instance=P130-1
    1,    2,    3,    4,    5,    8,    9,   10,   11,   12,   13,   14,   15,   17,   18,   19
   20,   21,   22,   23,   24,   25,   26,   29,   30,   31,   32,   33,   34,   35,   36,   37
   38,   39,   40,   41,   42,   43,   44,   45,   46,   47,   48,   49,   50,   51,   52,   53
   54,   55,   56,   57,   58,   59,   60,   61,   62,   63,   64,   65,   66,   67,   68,   69
   70,   71,   72,   73,   74,   75,   76,   77,   78,   79,   80,   81,  134,  135,  136,  137
  138,  139,  140,  141,  142,  143,  144,  145,  146,  147,  148,  149,  166,  167,  168,  169
  170,  171,  172,  173,  174,  175,  176,  177,  178,  179,  180,  181,  182,  183,  184,  185
  186,  187,  188,  189,  190,  191,  192,  193,  194,  195,  196,  197,  198,  199,  200,  201
  202,  203,  204,  205,  206,  207,  208,  209,  210,  211,  212,  213,  214,  215,  230,  231
  232,  233,  234,  235,  250,  251,  252,  253,  254,  255,  256,  257,  258,  259,  260,  261
  262,  263,  264,  265,  266,  267,  268,  269,  270,  271,  272,  273,  274,  275,  276,  277
  278,  279,  280,  281,  282,  283,  284,  285,  286,  287,  288,  289,  290,  291,  292,  293
  294,  295,  296,  297,  298,  299,  300,  301,  302,  303,  304,  338,  339,  340,  341,  342
  343,  344,  345,  346,  347,  348,  349,  350,  351,  352,  353,  354,  355,  356,  357,  358
  359,  360,  361,  362,  363,  364,  365,  366,  367,  368,  369,  370,  371,  387,  388,  389
  390,  391,  392,  393,  394,  395,  396,  397,  398,  399,  400,  401,  402,  403,  404,  405
  406,  407,  408,  409,  410,  411,  412,  413,  414,  415,  416,  417,  418,  419,  420,  421
  422,  423,  424,  425,  426,  427,  428,  429,  430,  431,  443,  444,  445,  446,  447,  448
  449,  450,  451,  452,  453,  454,  455,  456,  457,  458,  459,  460,  461,  462,  463,  464
  465,  466,  467,  468,  480,  481,  482,  483,  484,  485,  486,  487,  488,  489,  490,  491
** ... 61 like lines cut
*Elset, elset=Set-1, instance=P130-1
    1,    2,    3,    4,    5,    6,    7,    8,    9,   10,   11,   12,   13,   14,   15,   16
   17,   18,   19,   20,   21,   22,   23,   24,   25,   26,   27,   28,   29,   30,   31,   32
   33,   34,   35,   36,   37,   38,   39,   40,   41,   42,   43,   44,   45,   46,   47,   48
   49,   50,   51,   52,   53,   54,   55,   56,   57,   58,   59,   60,   61,   62,   63,   64
   65,   66,   67,   68,   69,   70,   71,   72,   73,   74,   75,   76,   77,   78,   79,   80
   81,   82,   83,   84,   85,   86,   87,   88,   89,   90,   91,   92,   93,   94,   95,   96
   97,   98,   99,  100,  101,  102,  103,  104,  105,  106,  107,  108,  109,  110,  111,  112
  113,  114,  115,  116,  117,  118,  119,  225,  226,  227,  228,  229,  230,  231,  337,  338
  339,  340,  341,  342,  343,  449,  450,  451,  452,  453,  454,  455,  561,  562,  563,  564
  565,  566,  567,  673,  674,  675,  676,  677,  678,  679,  785,  786,  787,  788,  789,  790
  791,  897,  898,  899,  900,  901,  902,  903, 1009, 1010, 1011, 1012, 1013, 1014, 1015, 1121
 1122, 1123, 1124, 1125, 1126, 1127, 1233, 1234, 1235, 1236, 1237, 1238, 1239, 1345, 1346, 1347
 1348, 1349, 1350, 1351, 1457, 1458, 1459, 1460, 1461, 1462, 1463, 1569, 1570, 1571, 1572, 1573
 1574, 1575, 1681, 1682, 1683, 1684, 1685, 1686, 1687, 1793, 1794, 1795, 1796, 1797, 1798, 1799
 1905, 1906, 1907, 1908, 1909, 1910, 1911, 1912, 1913, 1914, 1915, 1916, 1917, 1918, 1919, 1920
 1921, 1922, 1923, 1924, 1925, 1926, 1927, 1928, 1929, 1930, 1931, 1932, 1933, 1934, 1935, 1936
 1937, 1938, 1939, 1940, 1941, 1942, 1943, 1944, 1945, 1946, 1947, 1948, 1949, 1950, 1951, 1952
 1953, 1954, 1955, 1956, 1957, 1958, 1959, 1960, 1961, 1962, 1963, 1964, 1965, 1966, 1967, 1968
 1969, 1970, 1971, 1972, 1973, 1974, 1975, 1976, 1977, 1978, 1979, 1980, 1981, 1982, 1983, 1984
 1985, 1986, 1987, 1988, 1989, 1990, 1991, 1992, 1993, 1994, 1995, 1996, 1997, 1998, 1999, 2000
** ... 51 like lines cut
*Nset, nset=Set-2, instance=P130-1
    2,    3,    5,    6,    9,   11,   19,   20,   23,   40,   41,   42,   43,   44,   45,   46
   47,   48,   49,   50,   51,   52,   53,   54,   82,   83,   84,   85,   86,   87,   88,   89
   90,   91,   92,   93,   94,   95,   96,  150,  151,  152,  153,  154,  155,  156,  157,  158
  159,  160,  161,  162,  163,  164,  165,  166,  167,  168,  169,  170,  171,  172,  173,  174
  175,  176,  177,  178,  179,  180,  181,  182,  183,  184,  185,  186,  187,  188,  189,  190
  191,  192,  193,  194,  195,  216,  217,  218,  219,  220,  221,  222,  223,  224,  225,  226
  227,  228,  229,  266,  267,  268,  269,  270,  271,  272,  273,  274,  275,  276,  277,  278
  279,  280,  281,  406,  407,  408,  409,  410,  411,  412,  413,  414,  415,  416,  417,  418
  419,  420,  421,  422,  423,  424,  425,  426,  427,  428,  429,  430,  431,  432,  433,  434
  435,  436,  437,  438,  439,  440,  441,  442,  492,  493,  494,  495,  496,  497,  498,  499
  500,  501,  502,  503,  504,  505,  506,  507,  508,  509,  510,  511,  512,  513,  514,  515
  516, 1097, 1098, 1099, 1100, 1101, 1102, 1103, 1104, 1105, 1106, 1107, 1108, 1109, 1110, 1111
 1112, 1113, 1114, 1115, 1116, 1117, 1118, 1119, 1120, 1121, 1122, 1123, 1124, 1125, 1126, 1127
 1128, 1129, 1130, 1131, 1132, 1133, 1134, 1135, 1136, 1137, 1138, 1139, 1140, 1141, 1142, 1143
 1144, 1145, 1146, 1147, 1148, 1149, 1150, 1151, 1152, 1153, 1154, 1155, 1156, 1157, 1158, 1159
 1160, 1161, 1162, 1163, 1164, 1165, 1166, 1167, 1168, 1169, 1170, 1171, 1172, 1173, 1174, 1175
 1176, 1177, 1178, 1179, 1180, 1181, 1182, 1183, 1184, 1185, 1186, 1187, 1188, 1189, 1190, 1191
 1192, 1193, 1194, 1195, 1196, 1197, 1198, 1199, 1200, 1201, 1202, 1203, 1204, 1205, 1206, 1207
 1208, 1209, 1210, 1211, 1212, 1213, 1214, 1215, 1216, 1217, 1218, 1219, 1220, 1221, 1222, 1223
 1224, 1225, 1226, 1227, 1228, 1229, 1230, 1231, 1232, 1233, 1234, 1235, 1236, 1237, 1238, 1239
** ... 40 like lines cut
*Elset, elset=Set-2, instance=P130-1
    7,   14,   21,   28,   35,   42,   49,   56,   63,   70,   77,   84,   91,   98,  105,  112
  119,  126,  133,  140,  147,  154,  161,  168,  175,  182,  189,  196,  203,  210,  217,  224
  231,  238,  245,  252,  259,  266,  273,  280,  287,  294,  301,  308,  315,  322,  329,  336
  343,  350,  357,  364,  371,  378,  385,  392,  399,  406,  413,  420,  427,  434,  441,  448
  455,  462,  469,  476,  483,  490,  497,  504,  511,  518,  525,  532,  539,  546,  553,  560
  567,  574,  581,  588,  595,  602,  609,  616,  623,  630,  637,  644,  651,  658,  665,  672
  679,  686,  693,  700,  707,  714,  721,  728,  735,  742,  749,  756,  763,  770,  777,  784
  791,  798,  805,  812,  819,  826,  833,  840,  847,  854,  861,  868,  875,  882,  889,  896
  903,  910,  917,  924,  931,  938,  945,  952,  959,  966,  973,  980,  987,  994, 1001, 1008
 1015, 1022, 1029, 1036, 1043, 1050, 1057, 1064, 1071, 1078, 1085, 1092, 1099, 1106, 1113, 1120
 1127, 1134, 1141, 1148, 1155, 1162, 1169, 1176, 1183, 1190, 1197, 1204, 1211, 1218, 1225, 1232
 1239, 1246, 1253, 1260, 1267, 1274, 1281, 1288, 1295, 1302, 1309, 1316, 1323, 1330, 1337, 1344
 1351, 1358, 1365, 1372, 1379, 1386, 1393, 1400, 1407, 1414, 1421, 1428, 1435, 1442, 1449, 1456
 1463, 1470, 1477, 1484, 1491, 1498, 1505, 1512, 1519, 1526, 1533, 1540, 1547, 1554, 1561, 1568
 1575, 1582, 1589, 1596, 1603, 1610, 1617, 1624, 1631, 1638, 1645, 1652, 1659, 1666, 1673, 1680
 1687, 1694, 1701, 1708, 1715, 1722, 1729, 1736, 1743, 1750, 1757, 1764, 1771, 1778, 1785, 1792
 1799, 1806, 1813, 1820, 1827, 1834, 1841, 1848, 1855, 1862, 1869, 1876, 1883, 1890, 1897, 1904
 1905, 1906, 1907, 1908, 1909, 1910, 1911, 1912, 1913, 1914, 1915, 1916, 1917, 1918, 1919, 2010
 2011, 2012, 2013, 2014, 2015, 2016, 2017, 2018, 2019, 2020, 2021, 2022, 2023, 2024, 2115, 2116
 2117, 2118, 2119, 2120, 2121, 2122, 2123, 2124, 2125, 2126, 2127, 2128, 2129, 2220, 2221, 2222
** ... 37 like lines cut
*Elset, elset=_Surf-1_S4, internal, instance=P130-1, generate
 3693,  4709,     4
*Elset, elset=_Surf-1_S3, internal, instance=P130-1
 4710, 4711, 4712, 4713, 4714, 4715, 4716, 4717, 4718, 4719, 4720, 4721, 4722, 4723, 4724, 4725
 4774, 4775, 4776, 4777, 4778, 4779, 4780, 4781, 4782, 4783, 4784, 4785, 4786, 4787, 4788, 4789
 4838, 4839, 4840, 4841, 4842, 4843, 4844, 4845, 4846, 4847, 4848, 4849, 4850, 4851, 4852, 4853
 4902, 4903, 4904, 4905, 4906, 4907, 4908, 4909, 4910, 4911, 4912, 4913, 4914, 4915, 4916, 4917
 4966, 4967, 4968, 4969, 4970, 4971, 4972, 4973, 4974, 4975, 4976, 4977, 4978, 4979, 4980, 4981
 5030, 5031, 5032, 5033, 5034, 5035, 5036, 5037, 5038, 5039, 5040, 5041, 5042, 5043, 5044, 5045
 5094, 5095, 5096, 5097, 5098, 5099, 5100, 5101, 5102, 5103, 5104, 5105, 5106, 5107, 5108, 5109
 5158, 5159, 5160, 5161, 5162, 5163, 5164, 5165, 5166, 5167, 5168, 5169, 5170, 5171, 5172, 5173
 5222, 5223, 5224, 5225, 5226, 5227, 5228, 5229, 5230, 5231, 5232, 5233, 5234, 5235, 5236, 5237
 5286, 5287, 5288, 5289, 5290, 5291, 5292, 5293, 5294, 5295, 5296, 5297, 5298, 5299, 5300, 5301
 5350, 5351, 5352, 5353, 5354, 5355, 5356, 5357, 5358, 5359, 5360, 5361, 5362, 5363, 5364, 5365
 5414, 5415, 5416, 5417, 5418, 5419, 5420, 5421, 5422, 5423, 5424, 5425, 5426, 5427, 5428, 5429
 5478, 5479, 5480, 5481, 5482, 5483, 5484, 5485, 5486, 5487, 5488, 5489, 5490, 5491, 5492, 5493
 5542, 5543, 5544, 5545, 5546, 5547, 5548, 5549, 5550, 5551, 5552, 5553, 5554, 5555, 5556, 5557
 5606, 5607, 5608, 5609, 5610, 5611, 5612, 5613, 5614, 5615, 5616, 5617, 5618, 5619, 5620, 5621
 5670, 5671, 5672, 5673, 5674, 5675, 5676, 5677, 5678, 5679, 5680, 5681, 5682, 5683, 5684, 5685
 5734, 5735, 5736, 5737, 5738, 5739, 5740, 5741, 5742, 5743, 5744, 5745, 5746, 5747, 5748, 5749
 8402, 8406, 8410, 8414, 8418, 8422, 8426, 8430, 8434, 8438, 8442, 8446, 8450, 8454, 8458, 8462
 8658, 8659, 8660, 8661, 8662, 8663, 8664, 8665, 8666, 8667, 8668, 8669, 8670, 8671, 8672
*Surface, type=ELEMENT, name=Surf-1
_Surf-1_S4, S4
_Surf-1_S3, S3
*Elset, elset=_Surf-2_S4, internal, instance=P130-1, generate
 3693,  4709,     4
*Elset, elset=_Surf-2_S3, internal, instance=P130-1
 4710, 4711, 4712, 4713, 4714, 4715, 4716, 4717, 4718, 4719, 4720, 4721, 4722, 4723, 4724, 4725
 4774, 4775, 4776, 4777, 4778, 4779, 4780, 4781, 4782, 4783, 4784, 4785, 4786, 4787, 4788, 4789
 4838, 4839, 4840, 4841, 4842, 4843, 4844, 4845, 4846, 4847, 4848, 4849, 4850, 4851, 4852, 4853
 4902, 4903, 4904, 4905, 4906, 4907, 4908, 4909, 4910, 4911, 4912, 4913, 4914, 4915, 4916, 4917
 4966, 4967, 4968, 4969, 4970, 4971, 4972, 4973, 4974, 4975, 4976, 4977, 4978, 4979, 4980, 4981
 5030, 5031, 5032, 5033, 5034, 5035, 5036, 5037, 5038, 5039, 5040, 5041, 5042, 5043, 5044, 5045
 5094, 5095, 5096, 5097, 5098, 5099, 5100, 5101, 5102, 5103, 5104, 5105, 5106, 5107, 5108, 5109
 5158, 5159, 5160, 5161, 5162, 5163, 5164, 5165, 5166, 5167, 5168, 5169, 5170, 5171, 5172, 5173
 5222, 5223, 5224, 5225, 5226, 5227, 5228, 5229, 5230, 5231, 5232, 5233, 5234, 5235, 5236, 5237
 5286, 5287, 5288, 5289, 5290, 5291, 5292, 5293, 5294, 5295, 5296, 5297, 5298, 5299, 5300, 5301
 5350, 5351, 5352, 5353, 5354, 5355, 5356, 5357, 5358, 5359, 5360, 5361, 5362, 5363, 5364, 5365
 5414, 5415, 5416, 5417, 5418, 5419, 5420, 5421, 5422, 5423, 5424, 5425, 5426, 5427, 5428, 5429
 5478, 5479, 5480, 5481, 5482, 5483, 5484, 5485, 5486, 5487, 5488, 5489, 5490, 5491, 5492, 5493
 5542, 5543, 5544, 5545, 5546, 5547, 5548, 5549, 5550, 5551, 5552, 5553, 5554, 5555, 5556, 5557
 5606, 5607, 5608, 5609, 5610, 5611, 5612, 5613, 5614, 5615, 5616, 5617, 5618, 5619, 5620, 5621
 5670, 5671, 5672, 5673, 5674, 5675, 5676, 5677, 5678, 5679, 5680, 5681, 5682, 5683, 5684, 5685
 5734, 5735, 5736, 5737, 5738, 5739, 5740, 5741, 5742, 5743, 5744, 5745, 5746, 5747, 5748, 5749
 8402, 8406, 8410, 8414, 8418, 8422, 8426, 8430, 8434, 8438, 8442, 8446, 8450, 8454, 8458, 8462
 8658, 8659, 8660, 8661, 8662, 8663, 8664, 8665, 8666, 8667, 8668, 8669, 8670, 8671, 8672
*Surface, type=ELEMENT, name=Surf-2
_Surf-2_S4, S4
_Surf-2_S3, S3
*End Assembly
*Amplitude, name=Amp-1
            0.1,           514.8,             0.2,          1029.6,             0.3,          1544.4,             0.4,          2059.2
            0.5,           2574.,             0.6,          3088.8,             0.7,          3603.6,             0.8,          4118.4
            0.9,          4633.2,              1.,           5148.
** 
** MATERIALS
** 
*Material, name=Material-1
*Elastic
 31622.8, 0.2
** ----------------------------------------------------------------
** 
** STEP: Step-1
** 
*Step, name=Step-1, nlgeom=NO
*Static
0.1, 1., 1e-05, 1.
** 
** BOUNDARY CONDITIONS
** 
** Name: BC-1 Type: Symmetry/Antisymmetry/Encastre
*Boundary
Set-1, ZASYMM
** Name: BC-2 Type: Symmetry/Antisymmetry/Encastre
*Boundary
Set-2, ENCASTRE
** 
** LOADS
** 
** Name: Load-1   Type: Pressure
*Dsload
Surf-2, P, 0.8
** 
** OUTPUT REQUESTS
** 
*Restart, write, frequency=0
** 
** FIELD OUTPUT: F-Output-2
** 
*Output, field
*Node Output
U, 
*Element Output, directions=YES
E, S
** 
** FIELD OUTPUT: F-Output-1
** 
*Output, field, variable=PRESELECT
** 
** HISTORY OUTPUT: H-Output-1
** 
*Output, history, variable=PRESELECT
*End Step
