*Heading
** Job name: 140 Model name: 140
** Generated by: Abaqus/CAE 2018
*Preprint, echo=NO, model=NO, history=NO, contact=NO
**
** PARTS
**
*Part, name=P140
*End Part
**  
**
** ASSEMBLY
**
*Assembly, name=Assembly
**  
*Instance, name=P140-1, part=P140
*Node
      1,   268.467865,         77.5,          80.
      2,   268.467865,         77.5,           0.
      3,   268.467865,   151.899994,           0.
      4,   268.467865,   151.899994,          80.
      5,   167.792419,       19.375,           0.
      6,   77.0282822,   152.019745,           0.
      7,   102.085777,   152.096573,   74.5941315
      8,   146.540283,   7.10507345,   90.8514709
      9,   268.467865,        232.5,           0.
     10,   268.467865,        232.5,          80.
     11,   167.792419,      290.625,           0.
     12,   146.638748,   302.838074,   90.7272339
     13,   268.467865,        232.5,         100.
     14,   268.467865,   151.899994,         100.
     15,   146.761475,   302.767242,         100.
     16,   146.761475,    149.08931,         100.
     17,   268.467865,         77.5,         100.
     18,   146.761475,   7.23277235,         100.
     19,   134.233932,           0.,           0.
     20,   49.4546089,   48.9473686,           0.
** ... 8022 like lines cut
*Element, type=C3D8R
   1,  135, 1224, 3690,  850,    1,   46,  696,   81
   2, 1224, 1225, 3691, 3690,   46,   47,  697,  696
   3, 1225, 1226, 3692, 3691,   47,   48,  698,  697
   4, 1226, 1227, 3693, 3692,   48,   49,  699,  698
   5, 1227, 1228, 3694, 3693,   49,   50,  700,  699
   6, 1228, 1229, 3695, 3694,   50,   51,  701,  700
   7, 1229, 1230, 3696, 3695,   51,   52,  702,  701
   8, 1230,  169, 1037, 3696,   52,    2,   53,  702
   9,  850, 3690, 3697,  851,   81,  696,  703,   80
  10, 3690, 3691, 3698, 3697,  696,  697,  704,  703
  11, 3691, 3692, 3699, 3698,  697,  698,  705,  704
  12, 3692, 3693, 3700, 3699,  698,  699,  706,  705
  13, 3693, 3694, 3701, 3700,  699,  700,  707,  706
  14, 3694, 3695, 3702, 3701,  700,  701,  708,  707
  15, 3695, 3696, 3703, 3702,  701,  702,  709,  708
  16, 3696, 1037, 1038, 3703,  702,   53,   54,  709
  17,  851, 3697, 3704,  852,   80,  703,  710,   79
  18, 3697, 3698, 3705, 3704,  703,  704,  711,  710
  19, 3698, 3699, 3706, 3705,  704,  705,  712,  711
  20, 3699, 3700, 3707, 3706,  705,  706,  713,  712
** ... 6636 like lines cut
*Nset, nset=Set-1, generate
    1,  8042,     1
*Elset, elset=Set-1, generate
    1,  6656,     1
** Section: Section-1
*Solid Section, elset=Set-1, material=Material-1
,
*End Instance
**  
*Nset, nset=Set-1, instance=P140-1
    2,    3,    5,    6,    9,   11,   19,   20,   23,   24,   27,   28,   31,   53,   54,   55
   56,   57,   58,   59,   60,   61,   62,   63,   89,   90,   91,   92,   93,   94,   95,   96
   97,   98,   99,  152,  153,  154,  155,  156,  157,  158,  159,  160,  161,  162,  163,  164
  165,  166,  167,  168,  169,  170,  171,  172,  173,  174,  175,  176,  177,  178,  179,  180
  181,  182,  183,  184,  185,  186,  187,  188,  189,  190,  191,  192,  193,  194,  195,  196
  197,  217,  218,  219,  220,  221,  222,  223,  224,  225,  226,  227,  228,  265,  266,  267
  268,  269,  270,  271,  272,  273,  274,  275,  276,  277,  278,  279,  280,  281,  385,  386
  387,  388,  389,  390,  391,  392,  393,  394,  395,  396,  397,  398,  399,  400,  401,  402
  403,  404,  405,  441,  442,  443,  444,  445,  446,  447,  448,  449,  450,  451,  452,  453
  454,  455,  456,  457,  489,  490,  491,  492,  493,  494,  495,  496,  497,  498,  499,  500
  501,  502,  503,  504,  535,  536,  537,  538,  539,  540,  541,  542,  543,  544,  545,  546
  547,  548,  549,  550,  551, 1037, 1038, 1039, 1040, 1041, 1042, 1043, 1044, 1045, 1046, 1047
 1048, 1049, 1050, 1051, 1052, 1053, 1054, 1055, 1056, 1057, 1058, 1059, 1060, 1061, 1062, 1063
 1064, 1065, 1066, 1067, 1068, 1069, 1070, 1071, 1072, 1073, 1074, 1075, 1076, 1077, 1078, 1079
 1080, 1081, 1082, 1083, 1084, 1085, 1086, 1087, 1088, 1089, 1090, 1091, 1092, 1093, 1094, 1095
 1096, 1097, 1098, 1099, 1100, 1101, 1102, 1103, 1104, 1105, 1106, 1107, 1108, 1109, 1110, 1111
 1112, 1113, 1114, 1115, 1116, 1117, 1118, 1119, 1120, 1121, 1122, 1123, 1124, 1125, 1126, 1127
 1128, 1129, 1130, 1131, 1132, 1133, 1134, 1135, 1136, 1137, 1138, 1139, 1140, 1141, 1142, 1143
 1144, 1145, 1146, 1147, 1148, 1149, 1150, 1151, 1152, 1153, 1154, 1155, 1156, 1157, 1158, 1159
 1160, 1161, 1162, 1163, 1164, 1165, 1166, 1167, 1168, 1169, 1170, 1171, 1172, 1173, 1174, 1175
** ... 27 like lines cut
*Elset, elset=Set-1, instance=P140-1
    8,   16,   24,   32,   40,   48,   56,   64,   72,   80,   88,   96,  104,  112,  120,  128
  136,  144,  152,  160,  168,  176,  184,  192,  200,  208,  216,  224,  232,  240,  248,  256
  264,  272,  280,  288,  296,  304,  312,  320,  328,  336,  344,  352,  360,  368,  376,  384
  392,  400,  408,  416,  424,  432,  440,  448,  456,  464,  472,  480,  488,  496,  504,  512
  520,  528,  536,  544,  552,  560,  568,  576,  584,  592,  600,  608,  616,  624,  632,  640
  648,  656,  664,  672,  680,  688,  696,  704,  712,  720,  728,  736,  744,  752,  760,  768
  776,  784,  792,  800,  808,  816,  824,  832,  840,  848,  856,  864,  872,  880,  888,  896
  904,  912,  920,  928,  936,  944,  952,  960,  968,  976,  984,  992, 1000, 1008, 1016, 1024
 1032, 1040, 1048, 1056, 1064, 1072, 1080, 1088, 1096, 1104, 1112, 1120, 1128, 1136, 1144, 1152
 1160, 1168, 1176, 1184, 1192, 1200, 1208, 1216, 1224, 1232, 1240, 1248, 1256, 1264, 1272, 1280
 1288, 1296, 1304, 1312, 1320, 1328, 1336, 1344, 1352, 1360, 1368, 1376, 1384, 1392, 1400, 1408
 1416, 1424, 1432, 1440, 1448, 1456, 1464, 1472, 1480, 1488, 1496, 1504, 1512, 1520, 1528, 1536
 1544, 1552, 1560, 1568, 1576, 1584, 1592, 1600, 1608, 1616, 1624, 1632, 1640, 1648, 1656, 1664
 1672, 1680, 1688, 1696, 1704, 1712, 1720, 1728, 1729, 1730, 1731, 1732, 1733, 1734, 1735, 1736
 1737, 1738, 1739, 1740, 1741, 1833, 1834, 1835, 1836, 1837, 1838, 1839, 1840, 1841, 1842, 1843
 1844, 1845, 1937, 1938, 1939, 1940, 1941, 1942, 1943, 1944, 1945, 1946, 1947, 1948, 1949, 2041
 2042, 2043, 2044, 2045, 2046, 2047, 2048, 2049, 2050, 2051, 2052, 2053, 2145, 2146, 2147, 2148
 2149, 2150, 2151, 2152, 2153, 2154, 2155, 2156, 2157, 2249, 2250, 2251, 2252, 2253, 2254, 2255
 2256, 2257, 2258, 2259, 2260, 2261, 2353, 2354, 2355, 2356, 2357, 2358, 2359, 2360, 2361, 2362
 2363, 2364, 2365, 2457, 2458, 2459, 2460, 2461, 2462, 2463, 2464, 2465, 2466, 2467, 2468, 2469
** ... 23 like lines cut
*Nset, nset=Set-2, instance=P140-1
    1,    2,    3,    4,    5,    8,    9,   10,   11,   12,   13,   14,   15,   17,   18,   19
   20,   21,   22,   23,   24,   25,   26,   27,   28,   29,   30,   31,   32,   33,   34,   35
   37,   39,   40,   41,   42,   43,   44,   45,   46,   47,   48,   49,   50,   51,   52,   53
   54,   55,   56,   57,   58,   59,   60,   61,   62,   63,   64,   65,   66,   67,   68,   69
   70,   71,   72,   73,   74,   75,   76,   77,   78,   79,   80,   81,   82,   83,   84,   85
   86,   87,   88,  135,  136,  137,  138,  139,  140,  141,  142,  143,  144,  145,  146,  147
  148,  149,  150,  151,  169,  170,  171,  172,  173,  174,  175,  176,  177,  178,  179,  180
  181,  182,  183,  184,  185,  186,  187,  188,  189,  190,  191,  192,  193,  194,  195,  196
  197,  198,  199,  200,  201,  202,  203,  204,  205,  206,  207,  208,  209,  210,  211,  212
  213,  214,  215,  216,  229,  230,  231,  232,  233,  234,  235,  248,  249,  250,  251,  252
  253,  254,  255,  256,  257,  258,  259,  260,  261,  262,  263,  264,  265,  266,  267,  268
  269,  270,  271,  272,  273,  274,  275,  276,  277,  278,  279,  280,  281,  282,  283,  284
  285,  286,  287,  288,  289,  290,  291,  292,  293,  294,  295,  296,  327,  328,  329,  330
  331,  332,  333,  334,  335,  336,  337,  338,  339,  340,  341,  342,  343,  344,  345,  346
  347,  348,  349,  350,  351,  352,  353,  354,  355,  367,  368,  369,  370,  371,  372,  373
  374,  375,  376,  377,  378,  379,  380,  381,  382,  383,  384,  385,  386,  387,  388,  389
  390,  391,  392,  393,  394,  395,  396,  397,  398,  399,  400,  406,  407,  408,  409,  410
  411,  412,  413,  414,  415,  416,  417,  418,  419,  420,  421,  427,  428,  429,  430,  431
  432,  433,  434,  435,  436,  437,  438,  439,  440,  441,  442,  443,  444,  445,  446,  447
  448,  449,  450,  451,  458,  459,  460,  461,  462,  463,  464,  465,  466,  467,  468,  475
** ... 62 like lines cut
*Elset, elset=Set-2, instance=P140-1
    1,    2,    3,    4,    5,    6,    7,    8,    9,   10,   11,   12,   13,   14,   15,   16
   17,   18,   19,   20,   21,   22,   23,   24,   25,   26,   27,   28,   29,   30,   31,   32
   33,   34,   35,   36,   37,   38,   39,   40,   41,   42,   43,   44,   45,   46,   47,   48
   49,   50,   51,   52,   53,   54,   55,   56,   57,   58,   59,   60,   61,   62,   63,   64
   65,   66,   67,   68,   69,   70,   71,   72,   73,   74,   75,   76,   77,   78,   79,   80
   81,   82,   83,   84,   85,   86,   87,   88,   89,   90,   91,   92,   93,   94,   95,   96
   97,   98,   99,  100,  101,  102,  103,  104,  193,  194,  195,  196,  197,  198,  199,  200
  289,  290,  291,  292,  293,  294,  295,  296,  385,  386,  387,  388,  389,  390,  391,  392
  481,  482,  483,  484,  485,  486,  487,  488,  577,  578,  579,  580,  581,  582,  583,  584
  673,  674,  675,  676,  677,  678,  679,  680,  769,  770,  771,  772,  773,  774,  775,  776
  865,  866,  867,  868,  869,  870,  871,  872,  961,  962,  963,  964,  965,  966,  967,  968
 1057, 1058, 1059, 1060, 1061, 1062, 1063, 1064, 1153, 1154, 1155, 1156, 1157, 1158, 1159, 1160
 1249, 1250, 1251, 1252, 1253, 1254, 1255, 1256, 1345, 1346, 1347, 1348, 1349, 1350, 1351, 1352
 1441, 1442, 1443, 1444, 1445, 1446, 1447, 1448, 1537, 1538, 1539, 1540, 1541, 1542, 1543, 1544
 1633, 1634, 1635, 1636, 1637, 1638, 1639, 1640, 1729, 1730, 1731, 1732, 1733, 1734, 1735, 1736
 1737, 1738, 1739, 1740, 1741, 1742, 1743, 1744, 1745, 1746, 1747, 1748, 1749, 1750, 1751, 1752
 1753, 1754, 1755, 1756, 1757, 1758, 1759, 1760, 1761, 1762, 1763, 1764, 1765, 1766, 1767, 1768
 1769, 1770, 1771, 1772, 1773, 1774, 1775, 1776, 1777, 1778, 1779, 1780, 1781, 1782, 1783, 1784
 1785, 1786, 1787, 1788, 1789, 1790, 1791, 1792, 1793, 1794, 1795, 1796, 1797, 1798, 1799, 1800
 1801, 1802, 1803, 1804, 1805, 1806, 1807, 1808, 1809, 1810, 1811, 1812, 1813, 1814, 1815, 1816
** ... 51 like lines cut
*Elset, elset=_Surf-1_S4, internal, instance=P140-1
 3602, 3604, 3606, 3608, 3610, 3612, 3614, 3616, 3618, 3620, 3622, 3624, 3626, 3628, 3630, 3632
 3634, 3636, 3638, 3640, 3642, 3644, 3646, 3648, 3650, 3652, 3654, 3656, 3658, 3660, 3662, 3664
 3666, 3668, 3670, 3672, 3674, 3676, 3678, 3680, 3682, 3684, 3686, 3688, 3690, 3692, 3694, 3696
 3698, 3700, 3702, 3704, 3706, 3708, 3710, 3712, 3714, 3716, 3718, 3720, 3722, 3724, 3726, 3728
 3730, 3732, 3734, 3736, 3738, 3740, 3742, 3744, 3746, 3748, 3750, 3752, 3754, 3756, 3758, 3760
 3762, 3764, 3766, 3768, 3770, 3772, 3774, 3776, 3778, 3780, 3782, 3784, 3786, 3788, 3790, 3792
 3794, 3796, 3798, 3800, 3802, 3804, 3806, 3808, 3810, 3812, 3814, 3816, 3818, 3820, 3822, 3824
 3826, 3828, 3830, 3832, 3834, 3836, 3838, 3840, 3842, 3844, 3846, 3848, 3850, 3852, 3854, 3856
 3858, 3860, 3862, 3864, 3866, 3868, 3870, 3872, 3874, 3876, 3878, 3880, 3882, 3884, 3886, 3888
 3890, 3892, 3894, 3896, 3898, 3900, 3902, 3904, 3906, 3908, 3910, 3912, 3914, 3916, 3918, 3920
 3922, 3924, 3926, 3928, 3930, 3932, 3934, 3936, 3938, 3940, 3942, 3944, 3946, 3948, 3950, 3952
 3954, 3956, 3958, 3960, 3962, 3964, 3966, 3968, 3970, 3972, 3974, 3976, 3978, 3980, 3982, 3984
 3986, 3988, 3990, 3992, 3994, 3996, 3998, 4000, 4002, 4004, 4006, 4008, 4010, 4012, 4014, 4016
 4018, 4020, 4022, 4024, 4026, 4028, 4030, 4032, 4034, 4036, 4038, 4040, 4042, 4044, 4046, 4048
 4050, 4052, 4054, 4056, 4058, 4060, 4062, 4064, 4066, 4068, 6452, 6454, 6456, 6458, 6460, 6462
 6464, 6466, 6468, 6470, 6472, 6474, 6476, 6634, 6636, 6638, 6640, 6642, 6644, 6646, 6648, 6650
 6652, 6654, 6656
*Elset, elset=_Surf-1_S3, internal, instance=P140-1
 4069, 4070, 4071, 4072, 4073, 4074, 4075, 4076, 4077, 4078, 4079, 4080, 4093, 4094, 4095, 4096
 4097, 4098, 4099, 4100, 4101, 4102, 4103, 4104, 4117, 4118, 4119, 4120, 4121, 4122, 4123, 4124
 4125, 4126, 4127, 4128, 4141, 4142, 4143, 4144, 4145, 4146, 4147, 4148, 4149, 4150, 4151, 4152
 4165, 4166, 4167, 4168, 4169, 4170, 4171, 4172, 4173, 4174, 4175, 4176, 4189, 4190, 4191, 4192
 4193, 4194, 4195, 4196, 4197, 4198, 4199, 4200, 4213, 4214, 4215, 4216, 4217, 4218, 4219, 4220
 4221, 4222, 4223, 4224, 4237, 4238, 4239, 4240, 4241, 4242, 4243, 4244, 4245, 4246, 4247, 4248
 4261, 4262, 4263, 4264, 4265, 4266, 4267, 4268, 4269, 4270, 4271, 4272, 4285, 4286, 4287, 4288
 4289, 4290, 4291, 4292, 4293, 4294, 4295, 4296, 4309, 4310, 4311, 4312, 4313, 4314, 4315, 4316
 4317, 4318, 4319, 4320, 4333, 4334, 4335, 4336, 4337, 4338, 4339, 4340, 4341, 4342, 4343, 4344
 4357, 4358, 4359, 4360, 4361, 4362, 4363, 4364, 4365, 4366, 4367, 4368, 4381, 4382, 4383, 4384
 4385, 4386, 4387, 4388, 4389, 4390, 4391, 4392, 4405, 4406, 4407, 4408, 4409, 4410, 4411, 4412
 4413, 4414, 4415, 4416, 4429, 4430, 4431, 4432, 4433, 4434, 4435, 4436, 4437, 4438, 4439, 4440
 4453, 4454, 4455, 4456, 4457, 4458, 4459, 4460, 4461, 4462, 4463, 4464, 4477, 4478, 4479, 4480
 4481, 4482, 4483, 4484, 4485, 4486, 4487, 4488
*Surface, type=ELEMENT, name=Surf-1
_Surf-1_S4, S4
_Surf-1_S3, S3
*End Assembly
** 
** MATERIALS
** 
*Material, name=Material-1
*Elastic
 31622.8, 0.2
** ----------------------------------------------------------------
** 
** STEP: Step-1
** 
*Step, name=Step-1, nlgeom=NO
*Static
0.1, 1., 1e-05, 1.
** 
** BOUNDARY CONDITIONS
** 
** Name: BC-1 Type: Symmetry/Antisymmetry/Encastre
*Boundary
Set-1, ENCASTRE
** Name: BC-2 Type: Symmetry/Antisymmetry/Encastre
*Boundary
Set-2, ZASYMM
** 
** LOADS
** 
** Name: Load-1   Type: Pressure
*Dsload
Surf-1, P, 0.8
** 
** OUTPUT REQUESTS
** 
*Restart, write, frequency=0
** 
** FIELD OUTPUT: F-Output-2
** 
*Output, field
*Node Output
U, 
*Element Output, directions=YES
E, S
** 
** FIELD OUTPUT: F-Output-1
** 
*Output, field, variable=PRESELECT
** 
** HISTORY OUTPUT: H-Output-1
** 
*Output, history, variable=PRESELECT
*End Step
