1

   Abaqus 3DEXPERIENCE R2018x                                  Date 24-Nov-2024   Time 01:46:18
   For use by INDIAN INSTITUTE OF TECHNOLOGY under license from Dassault Systemes or its subsidiary.



                         The Abaqus Software is a product of:

                           Dassault Systemes SIMULIA Corp.
                           1301 Atwood Avenue, Suite 101W
                              Johnston, RI 02919, USA
 


                   The Abaqus Software is available only under license
                   from Dassault Systemes or its subsidiary and may be
                   used or reproduced only in accordance with the terms
                   of such license.
 
                          On machine DESKTOP-M4VAJAV 
                          you are authorized to run
                          Abaqus/Standard until 09-Apr-2025

                          Your site id is: 200000000145531 


 
                    For assistance or any other information you may
                    obtain contact information for your local office
                    from the world wide web at:

                      http://www.3ds.com/products/simulia/locations/

 
                * * * * * * * * * * * * * * * * * * * * * * * * * * * * * * 
                *                                                         * 
                *                   *****************                     * 
                *                   *  N O T I C E  *                     * 
                *                   *****************                     * 
                *                                                         * 
                *                                                         * 
                *               Abaqus 3DEXPERIENCE R2018x                * 
                *                                                         * 
                *          BUILD ID: 2017_11_07-22.51.41 127140           * 
                *                                                         * 
                *                                                         * 
                *  Please make sure you are using                         * 
                *  release 3DEXPERIENCE R2018x manuals                    * 
                *  plus the notes accompanying this release.              * 
                *                                                         * 
                *                                                         * 
                *                                                         * 
                *                                                         * 
                *                                                         * 
                *   This program may not be used for commercial purposes  * 
                *           without payment of a commercial fee.          * 
                *                                                         * 
                * * * * * * * * * * * * * * * * * * * * * * * * * * * * * * 


 



     PROCESSING PART, INSTANCE, AND ASSEMBLY INFORMATION
   *******************************************************


     END PROCESSING PART, INSTANCE, AND ASSEMBLY INFORMATION
   ***********************************************************




     OPTIONS BEING PROCESSED
   ***************************


  *Heading
  *Node
  *Element, type=C3D8R
  *Nset, nset=ASSEMBLY_P140-1_SET-1
  *Elset, elset=ASSEMBLY_P140-1_SET-1
  *Nset, nset=ASSEMBLY_SET-1
  *Nset, nset=ASSEMBLY_SET-2
  *Elset, elset=ASSEMBLY_SET-1
  *Elset, elset=ASSEMBLY_SET-2
  *Elset, elset=ASSEMBLY__SURF-1_S3
  *Elset, elset=ASSEMBLY__SURF-1_S4
  *Elset, elset=ASSEMBLY__SURF-2_S3
  *Elset, elset=ASSEMBLY__SURF-2_S4
  *material, name=MATERIAL-1
  *elastic
  *solidsection, elset=ASSEMBLY_P140-1_SET-1, material=MATERIAL-1
  *solidsection, elset=ASSEMBLY_P140-1_SET-1, material=MATERIAL-1
  *surface, type=ELEMENT, name=ASSEMBLY_SURF-1
  *surface, type=ELEMENT, name=ASSEMBLY_SURF-2
  *surface, type=ELEMENT, name=ASSEMBLY_SURF-1
  *surface, type=ELEMENT, name=ASSEMBLY_SURF-2
  *boundary
  *boundary
  *boundary
  *boundary
  *surface, type=ELEMENT, name=ASSEMBLY_SURF-1
  *surface, type=ELEMENT, name=ASSEMBLY_SURF-2
  *output, field
  *output, field, variable=PRESELECT
  *output, history, variable=PRESELECT
  *elementoutput, directions=YES
  *output, field
  *output, field, variable=PRESELECT
  *output, history, variable=PRESELECT
  *elementoutput, directions=YES
  *output, field
  *output, field, variable=PRESELECT
  *output, history, variable=PRESELECT
  *elementoutput, directions=YES
  
                               E L E M E N T   Q U A L I T Y  C H E C K S        
  
  
 ***NOTES: DISTORTED ISOPARAMETRIC ELEMENTS: ANGLE BETWEEN ISOPARAMETRIC LINES 
           IS LESS THAN 45 DEGREES OR GREATER THAN 135 DEGREES.
  
           TETRAHEDRAL QUALITY MEASURE: VOLUME OF TETRAHEDRON DIVIDED BY THE 
           VOLUME OF EQUILATERAL TETRAHEDRON WITH SAME CIRCUMSPHERE RADIUS; 
           0 FOR DEGENERATE TETRAHEDRON AND 1 FOR EQUILATERIAL TETRAHEDRON. IT 
           IS RECOMMENDED THAT THE TETRAHEDRAL QUALITY MEASURE BE GREATER THAN 
           0.02, THE MIN INTERIOR (DIHEDRAL) ANGLE BE GREATER THAN 10 DEGREES, 
           AND THE MAX INTERIOR (DIHEDRAL) ANGLE BE LESS THAN 160 DEGREES. 
  
           MODIFIED TETRAHEDRAL QUALITY MEASURE: ANGLES BETWEEN THE TWO LINE 
           SEGMENTS ON EACH EDGE; THE EDGES OF MODIFIED TETRAHEDRAL SHOULD BE 
           AS STRAIGHT AS POSSIBLE. IT IS RECOMMENDED THAT THE ANGLE BETWEEN 
           THE TWO LINE SEGMENTS ON EACH EDGE IS BETWEEN 160 AND 180 DEGREES. 
  
           TRIANGULAR QUALITY MEASURE: AREA OF TRIANGLE DIVIDED BY THE AREA OF 
           EQUILATERAL TRIANGLE WITH SAME CIRCUMCIRCLE RADIUS; 0 FOR DEGENERATE 
           TRIANGLE AND 1 FOR EQUILATERAL TRIANGLE. IT IS RECOMMENDED THAT THE
           TRIANGULAR QUALITY MEASURE BE GREATER THAN 0.01, THE MIN INTERIOR 
           ANGLE BE GREATER THAN 10 DEGREES, AND THE MAX INTERIOR ANGLE BE LESS 
           THAN 160 DEGREES. 
  
           NODAL ADJUSTMENTS ARISING FROM CONTACT INTERACTIONS AND/OR TIE 
           CONSTRAINTS CAN CAUSE SEVERE ELEMENT DISTORTION. IT MAY BE NECESSARY 
           TO REMESH IN ORDER TO REDUCE THE AMOUNT OF ADJUSTMENT. 

 ***WARNING: 209 elements are distorted. Either the isoparametric angles are 
             out of the suggested limits or the triangular or tetrahedral 
             quality measure is bad. The elements have been identified in 
             element set WarnElemDistorted.
  
 --------------------------------------------------------------------------------
 Distorted isoparametric elements
  
     Element       Min/max angle   Adjusted nodes 
 ---------------- ---------------- -------------- 
      P140-1.4818          44.3854       NO       
      P140-1.4822          43.7707       NO       
      P140-1.4826          43.4295       NO       
      P140-1.4830          43.2678       NO       
      P140-1.4834          43.1997       NO       
      P140-1.4838          43.1735       NO       
      P140-1.4842          43.1638       NO       
      P140-1.4846          43.1603       NO       
      P140-1.4850          43.1612       NO       
      P140-1.4854          43.1748       NO       
      P140-1.4858          43.2165       NO       
      P140-1.4862          43.2821       NO       
      P140-1.4866          42.7613       NO       
      P140-1.4870           42.652       NO       
      P140-1.4874          41.7887       NO       
      P140-1.4878          41.0015       NO       
      P140-1.4882          40.4587       NO       
      P140-1.4886          40.1536       NO       
      P140-1.4890           40.007       NO       
      P140-1.4894          39.9444       NO       
      P140-1.4898          39.9199       NO       
      P140-1.4902          39.9108       NO       
      P140-1.4906          39.9075       NO       
      P140-1.4910          39.9084       NO       
      P140-1.4914          39.9196       NO       
      P140-1.4918          39.9515       NO       
      P140-1.4922          39.9954       NO       
      P140-1.4925          44.8852       NO       
      P140-1.4926          39.5064       NO       
      P140-1.4930          38.1215       NO       
      P140-1.4933          44.4222       NO       
      P140-1.4934          37.4261       NO       
      P140-1.4937          43.6988       NO       
      P140-1.4938           36.835       NO       
      P140-1.4941          43.1896       NO       
      P140-1.4942          36.4308       NO       
      P140-1.4945          42.9147       NO       
      P140-1.4946          36.2014       NO       
      P140-1.4949          42.7929       NO       
      P140-1.4950          36.0896       NO       
      P140-1.4953           42.746       NO       
      P140-1.4954          36.0412       NO       
      P140-1.4957          42.7293       NO       
      P140-1.4958           36.022       NO       
      P140-1.4961          42.7235       NO       
      P140-1.4962          36.0148       NO       
      P140-1.4965          42.7211       NO       
      P140-1.4966           36.012       NO       
      P140-1.4969          42.7205       NO       
      P140-1.4970          36.0118       NO       
      P140-1.4973          42.7264       NO       
      P140-1.4974          36.0179       NO       
      P140-1.4977          42.7538       NO       
      P140-1.4978          36.0346       NO       
      P140-1.4981          42.8348       NO       
      P140-1.4982          36.0478       NO       
      P140-1.4985          42.5113       NO       
      P140-1.4986          35.6344       NO       
      P140-1.5883          44.9917       NO       
      P140-1.5884          44.5069       NO       
      P140-1.5885          44.3429       NO       
      P140-1.5886          44.2824       NO       
      P140-1.5887            44.26       NO       
      P140-1.5888          44.2521       NO       
      P140-1.5889          44.2495       NO       
      P140-1.5890          44.2488       NO       
      P140-1.5891          44.2486       NO       
      P140-1.5892          44.2489       NO       
      P140-1.5893          44.2508       NO       
      P140-1.5894          44.2708       NO       
      P140-1.5895          44.4262       NO       
      P140-1.5947          41.8358       NO       
      P140-1.5948          41.3457       NO       
      P140-1.5949          41.1823       NO       
      P140-1.5950          41.1222       NO       
      P140-1.5951          41.0999       NO       
      P140-1.5952          41.0921       NO       
      P140-1.5953          41.0895       NO       
      P140-1.5954          41.0887       NO       
      P140-1.5955          41.0885       NO       
      P140-1.5956          41.0888       NO       
      P140-1.5957          41.0908       NO       
      P140-1.5958          41.1119       NO       
      P140-1.5959          41.2745       NO       
      P140-1.5960          41.8903       NO       
      P140-1.5961          43.0318       NO       
      P140-1.5962          43.4859       NO       
      P140-1.6011           38.662       NO       
      P140-1.6012          38.2209       NO       
      P140-1.6013          38.0764       NO       
      P140-1.6014          38.0228       NO       
      P140-1.6015          38.0025       NO       
      P140-1.6016          37.9952       NO       
      P140-1.6017          37.9927       NO       
      P140-1.6018          37.9919       NO       
      P140-1.6019          37.9918       NO       
      P140-1.6020          37.9921       NO       
      P140-1.6021          37.9942       NO       
      P140-1.6022          38.0159       NO       
      P140-1.6023          38.1759       NO       
      P140-1.6024          38.7589       NO       
      P140-1.6025          39.8009       NO       
      P140-1.6026          40.2347       NO       
      P140-1.6027          44.5225       NO       
      P140-1.6028          44.6406       NO       
      P140-1.6029          44.6554       NO       
      P140-1.6030          44.6327       NO       
      P140-1.6031          44.6147       NO       
      P140-1.6032          44.6064       NO       
      P140-1.6033          44.6034       NO       
      P140-1.6034          44.6025       NO       
      P140-1.6035           44.603       NO       
      P140-1.6036          44.6058       NO       
      P140-1.6037          44.6192       NO       
      P140-1.6038          44.7017       NO       
      P140-1.6075          34.9884       NO       
      P140-1.6076          34.6839       NO       
      P140-1.6077          34.5841       NO       
      P140-1.6078          34.5455       NO       
      P140-1.6079          34.5299       NO       
      P140-1.6080          34.5241       NO       
      P140-1.6081           34.522       NO       
      P140-1.6082          34.5214       NO       
      P140-1.6083          34.5213       NO       
      P140-1.6084          34.5215       NO       
      P140-1.6085          34.5233       NO       
      P140-1.6086           34.541       NO       
      P140-1.6087          34.6725       NO       
      P140-1.6088          35.1343       NO       
      P140-1.6089          35.9354       NO       
      P140-1.6090          36.3116       NO       
      P140-1.6091          42.1127       NO       
      P140-1.6092          42.0981       NO       
      P140-1.6093          42.0856       NO       
      P140-1.6094          42.0592       NO       
      P140-1.6095          42.0407       NO       
      P140-1.6096          42.0321       NO       
      P140-1.6097           42.029       NO       
      P140-1.6098           42.028       NO       
      P140-1.6099          42.0283       NO       
      P140-1.6100          42.0309       NO       
      P140-1.6101          42.0432       NO       
      P140-1.6102          42.1191       NO       
      P140-1.6103          42.4341       NO       
      P140-1.6104          43.1584       NO       
      P140-1.6105          44.1255       NO       
      P140-1.6106          44.5945       NO       
      P140-1.8526          31.0372       NO       
      P140-1.8527          39.5887       NO       
      P140-1.8530          30.6596       NO       
      P140-1.8531          38.8976       NO       
      P140-1.8534          30.2145       NO       
      P140-1.8535          38.1137       NO       
      P140-1.8538          30.0188       NO       
      P140-1.8539          37.6799       NO       
      P140-1.8542          29.9833       NO       
      P140-1.8543          37.5484       NO       
      P140-1.8546          29.9807       NO       
      P140-1.8547          37.5279       NO       
      P140-1.8550          29.9804       NO       
      P140-1.8551          37.5244       NO       
      P140-1.8554          29.9804       NO       
      P140-1.8555          37.5236       NO       
      P140-1.8558          29.9804       NO       
      P140-1.8559          37.5236       NO       
      P140-1.8562          29.9807       NO       
      P140-1.8563          37.5241       NO       
      P140-1.8566          29.9815       NO       
      P140-1.8567          37.5258       NO       
      P140-1.8570          29.9839       NO       
      P140-1.8571          37.5308       NO       
      P140-1.8574          29.9908       NO       
      P140-1.8575           37.544       NO       
      P140-1.8578          30.0077       NO       
      P140-1.8579          37.5689       NO       
      P140-1.8582          30.0442       NO       
      P140-1.8583          37.5925       NO       
      P140-1.8586          30.1218       NO       
      P140-1.8587          37.5808       NO       
      P140-1.8766          30.4296       NO       
      P140-1.8767          30.6969       NO       
      P140-1.8768          30.7082       NO       
      P140-1.8769          30.7064       NO       
      P140-1.8770          30.7067       NO       
      P140-1.8771          30.7078       NO       
      P140-1.8772          30.7091       NO       
      P140-1.8773          30.7121       NO       
      P140-1.8774          30.7206       NO       
      P140-1.8775          30.7429       NO       
      P140-1.8776          30.7975       NO       
      P140-1.8777          30.9168       NO       
      P140-1.8778          31.1425       NO       
      P140-1.8779          31.5043       NO       
      P140-1.8780          31.9992       NO       
      P140-1.8781          37.9383       NO       
      P140-1.8782          38.3042       NO       
      P140-1.8783          38.2925       NO       
      P140-1.8784          38.2906       NO       
      P140-1.8785          38.2938       NO       
      P140-1.8786          38.2961       NO       
      P140-1.8787          38.2977       NO       
      P140-1.8788           38.301       NO       
      P140-1.8789           38.311       NO       
      P140-1.8790          38.3401       NO       
      P140-1.8791          38.4188       NO       
      P140-1.8792          38.6074       NO       
      P140-1.8793          38.9875       NO       
      P140-1.8794          39.6034       NO       
      P140-1.8795           40.389       NO       
  
  
  *amplitude, name=AMP-1
  *Step, name=Step-1, nlgeom=NO
  *output, field
  *output, field, variable=PRESELECT
  *output, history, variable=PRESELECT
  *Step, name=Step-1, nlgeom=NO
  *Step, name=Step-1, nlgeom=NO
  *static
  *boundary
  *boundary
  *dsload
  *output, field
  *nodeoutput
  *elementoutput, directions=YES
  *output, field, variable=PRESELECT
  *output, history, variable=PRESELECT
  *endstep
  *Step, name=Step-1, nlgeom=NO
  *static
  *boundary
  *boundary
  *endstep

     - (RAMP) OR (STEP) - INDICATE USE OF DEFAULT AMPLITUDES ASSOCIATED WITH THE STEP



                            P R O B L E M   S I Z E


          NUMBER OF ELEMENTS IS                                  8990
          NUMBER OF NODES IS                                    10624
          NUMBER OF NODES DEFINED BY THE USER                   10624
          TOTAL NUMBER OF VARIABLES IN THE MODEL                31872
          (DEGREES OF FREEDOM PLUS MAX NO. OF ANY LAGRANGE MULTIPLIER
           VARIABLES. INCLUDE *PRINT,SOLVE=YES TO GET THE ACTUAL NUMBER.)



                              END OF USER INPUT PROCESSING



     JOB TIME SUMMARY
       USER TIME (SEC)      =   1.9000    
       SYSTEM TIME (SEC)    =  0.50000    
       TOTAL CPU TIME (SEC) =   2.4000    
       WALLCLOCK TIME (SEC) =          3
1

   Abaqus 3DEXPERIENCE R2018x                                  Date 24-Nov-2024   Time 01:46:25
   For use by INDIAN INSTITUTE OF TECHNOLOGY under license from Dassault Systemes or its subsidiary.

                                                                                               STEP    1  INCREMENT    1
                                                                                          TIME COMPLETED IN THIS STEP   0.00    


                        S T E P       1     S T A T I C   A N A L Y S I S


                                                                                          

     AUTOMATIC TIME CONTROL WITH -
          A SUGGESTED INITIAL TIME INCREMENT OF                0.100    
          AND A TOTAL TIME PERIOD OF                            1.00    
          THE MINIMUM TIME INCREMENT ALLOWED IS                1.000E-05
          THE MAXIMUM TIME INCREMENT ALLOWED IS                 1.00    

     LINEAR EQUATION SOLVER TYPE         DIRECT SPARSE
  
                   M E M O R Y   E S T I M A T E
  
 PROCESS      FLOATING PT       MINIMUM MEMORY        MEMORY TO
              OPERATIONS           REQUIRED          MINIMIZE I/O
             PER ITERATION           (MB)               (MB)
  
     1          1.26E+10               38                208
  
 NOTE:
      (1) SINCE ABAQUS DOES NOT PRE-ALLOCATE MEMORY AND ONLY ALLOCATES MEMORY AS NEEDED DURING THE ANALYSIS,
          THE MEMORY REQUIREMENT PRINTED HERE CAN ONLY BE VIEWED AS A GENERAL GUIDELINE BASED ON THE BEST
          KNOWLEDGE AVAILABLE AT THE BEGINNING OF A STEP BEFORE THE SOLUTION PROCESS HAS BEGUN.
      (2) THE ESTIMATE IS NORMALLY UPDATED AT THE BEGINNING OF EVERY STEP. IT IS THE MAXIMUM VALUE OF THE
          ESTIMATE FROM THE CURRENT STEP TO THE LAST STEP OF THE ANALYSIS, WITH UNSYMMETRIC SOLUTION TAKEN
          INTO ACCOUNT IF APPLICABLE. 
      (3) SINCE THE ESTIMATE IS BASED ON THE ACTIVE DEGREES OF FREEDOM IN THE FIRST ITERATION OF THE 
          CURRENT STEP, THE MEMORY ESTIMATE MIGHT BE SIGNIFICANTLY DIFFERENT THAN ACTUAL USAGE FOR 
          PROBLEMS WITH SUBSTANTIAL CHANGES IN ACTIVE DEGREES OF FREEDOM BETWEEN STEPS (OR EVEN WITHIN
          THE SAME STEP). EXAMPLES ARE: PROBLEMS WITH SIGNIFICANT CONTACT CHANGES, PROBLEMS WITH MODEL
          CHANGE, PROBLEMS WITH BOTH STATIC STEP AND STEADY STATE DYNAMIC PROCEDURES WHERE ACOUSTIC 
          ELEMENTS WILL ONLY BE ACTIVATED IN THE STEADY STATE DYNAMIC STEPS.
      (4) FOR MULTI-PROCESS EXECUTION, THE ESTIMATED VALUE OF FLOATING POINT OPERATIONS FOR EACH PROCESS
          IS BASED ON AN INITIAL SCHEDULING OF OPERATIONS AND MIGHT NOT REFLECT THE ACTUAL FLOATING 
          POINT OPERATIONS COMPLETED ON EACH PROCESS. OPERATIONS ARE DYNAMICALLY BALANCED DURING EXECUTION, 
          SO THE ACTUAL BALANCE OF OPERATIONS BETWEEN PROCESSES IS EXPECTED TO BE BETTER THAN THE ESTIMATE
          PRINTED HERE.
      (5) THE UPPER LIMIT OF MEMORY THAT CAN BE ALLOCATED BY ABAQUS WILL IN GENERAL DEPEND ON THE VALUE OF
          THE "MEMORY" PARAMETER AND THE AMOUNT OF PHYSICAL MEMORY AVAILABLE ON THE MACHINE. PLEASE SEE
          THE "ABAQUS ANALYSIS USER'S MANUAL" FOR MORE DETAILS. THE ACTUAL USAGE OF MEMORY AND OF DISK
          SPACE FOR SCRATCH DATA WILL DEPEND ON THIS UPPER LIMIT AS WELL AS THE MEMORY REQUIRED TO MINIMIZE
          I/O. IF THE MEMORY UPPER LIMIT IS GREATER THAN THE MEMORY REQUIRED TO MINIMIZE I/O, THEN THE ACTUAL
          MEMORY USAGE WILL BE CLOSE TO THE ESTIMATED "MEMORY TO MINIMIZE I/O" VALUE, AND THE SCRATCH DISK
          USAGE WILL BE CLOSE-TO-ZERO; OTHERWISE, THE ACTUAL MEMORY USED WILL BE CLOSE TO THE PREVIOUSLY
          MENTIONED MEMORY LIMIT, AND THE SCRATCH DISK USAGE WILL BE ROUGHLY PROPORTIONAL TO THE DIFFERENCE
          BETWEEN THE ESTIMATED "MEMORY TO MINIMIZE I/O" AND THE MEMORY UPPER LIMIT. HOWEVER ACCURATE
          ESTIMATE OF THE SCRATCH DISK SPACE IS NOT POSSIBLE.
      (6) USING "*RESTART, WRITE" CAN GENERATE A LARGE AMOUNT OF DATA WRITTEN IN THE WORK DIRECTORY.


          THE ANALYSIS HAS BEEN COMPLETED



                              ANALYSIS COMPLETE
                              WITH      1 WARNING MESSAGES ON THE DAT FILE



     JOB TIME SUMMARY
       USER TIME (SEC)      =   16.700    
       SYSTEM TIME (SEC)    =  0.60000    
       TOTAL CPU TIME (SEC) =   17.300    
       WALLCLOCK TIME (SEC) =         18
