*Heading
** Job name: 160 Model name: 160
** Generated by: Abaqus/CAE 2018
*Preprint, echo=NO, model=NO, history=NO, contact=NO
**
** PARTS
**
*Part, name=P160
*End Part
**  
**
** ASSEMBLY
**
*Assembly, name=Assembly
**  
*Instance, name=P160-1, part=P160
*Node
      1,   268.467865,         77.5,          75.
      2,   268.467865,         77.5,           0.
      3,   268.467865,   151.899994,           0.
      4,   268.467865,   151.899994,          75.
      5,   178.978577,    25.833334,           0.
      6,   86.7376709,   152.075119,           0.
      7,   117.366684,   152.319901,   67.7172928
      8,   168.142532,   19.5771389,   83.3455811
      9,   268.467865,        232.5,           0.
     10,   268.467865,        232.5,          75.
     11,   178.978577,   284.166656,           0.
     12,    168.12999,   290.430115,   83.0934753
     13,   268.467865,        232.5,         100.
     14,   268.467865,   151.899994,         100.
     15,   173.558487,   287.295959,         100.
     16,   173.558487,    149.70816,         100.
     17,   268.467865,         77.5,         100.
     18,   173.558487,   22.7040386,         100.
     19,   134.233932,           0.,           0.
     20,   49.4546089,   48.9473686,           0.
** ... 6292 like lines cut
*Element, type=C3D8R
   1,  123, 1061, 3236,  775,    1,   46,  665,   77
   2, 1061, 1062, 3237, 3236,   46,   47,  666,  665
   3, 1062, 1063, 3238, 3237,   47,   48,  667,  666
   4, 1063, 1064, 3239, 3238,   48,   49,  668,  667
   5, 1064, 1065, 3240, 3239,   49,   50,  669,  668
   6, 1065,  149,  918, 3240,   50,    2,   51,  669
   7,  775, 3236, 3241,  776,   77,  665,  670,   76
   8, 3236, 3237, 3242, 3241,  665,  666,  671,  670
   9, 3237, 3238, 3243, 3242,  666,  667,  672,  671
  10, 3238, 3239, 3244, 3243,  667,  668,  673,  672
  11, 3239, 3240, 3245, 3244,  668,  669,  674,  673
  12, 3240,  918,  919, 3245,  669,   51,   52,  674
  13,  776, 3241, 3246,  777,   76,  670,  675,   75
  14, 3241, 3242, 3247, 3246,  670,  671,  676,  675
  15, 3242, 3243, 3248, 3247,  671,  672,  677,  676
  16, 3243, 3244, 3249, 3248,  672,  673,  678,  677
  17, 3244, 3245, 3250, 3249,  673,  674,  679,  678
  18, 3245,  919,  920, 3250,  674,   52,   53,  679
  19,  777, 3246, 3251,  778,   75,  675,  680,   74
  20, 3246, 3247, 3252, 3251,  675,  676,  681,  680
** ... 5064 like lines cut
*Nset, nset=Set-1, generate
    1,  6312,     1
*Elset, elset=Set-1, generate
    1,  5084,     1
** Section: Section-1
*Solid Section, elset=Set-1, material=Material-1
,
*End Instance
**  
*Nset, nset=Set-1, instance=P160-1
    1,    2,    3,    4,    5,    8,    9,   10,   11,   12,   13,   14,   15,   17,   18,   19
   20,   21,   22,   23,   24,   25,   26,   27,   28,   29,   30,   31,   32,   33,   34,   35
   37,   39,   40,   41,   42,   43,   44,   45,   46,   47,   48,   49,   50,   51,   52,   53
   54,   55,   56,   57,   58,   59,   60,   61,   62,   63,   64,   65,   66,   67,   68,   69
   70,   71,   72,   73,   74,   75,   76,   77,   78,   79,   80,   81,   82,  123,  124,  125
  126,  127,  128,  129,  130,  131,  132,  133,  134,  135,  149,  150,  151,  152,  153,  154
  155,  156,  157,  158,  159,  160,  161,  162,  163,  164,  165,  166,  167,  168,  169,  170
  171,  172,  173,  174,  175,  176,  177,  178,  179,  180,  181,  182,  183,  184,  185,  186
  187,  188,  189,  190,  203,  204,  205,  206,  207,  220,  221,  222,  223,  224,  225,  226
  227,  228,  229,  230,  231,  232,  233,  234,  235,  236,  237,  238,  239,  240,  241,  242
  243,  244,  245,  246,  247,  248,  249,  250,  251,  252,  253,  254,  255,  256,  257,  258
  259,  260,  287,  288,  289,  290,  291,  292,  293,  294,  295,  296,  297,  298,  299,  300
  301,  302,  303,  304,  305,  306,  307,  308,  309,  310,  311,  323,  324,  325,  326,  327
  328,  329,  330,  331,  332,  333,  334,  335,  336,  337,  338,  339,  340,  341,  342,  343
  344,  345,  346,  347,  348,  349,  350,  351,  352,  353,  360,  361,  362,  363,  364,  365
  366,  367,  368,  369,  370,  371,  372,  373,  374,  375,  376,  383,  384,  385,  386,  387
  388,  389,  390,  391,  392,  393,  394,  395,  396,  397,  398,  399,  400,  401,  402,  403
  404,  411,  412,  413,  414,  415,  416,  417,  418,  419,  420,  421,  422,  429,  430,  431
  432,  433,  434,  435,  436,  437,  438,  439,  440,  441,  442,  443,  444,  445,  446,  447
  448,  449,  450,  457,  458,  459,  460,  461,  462,  463,  464,  465,  466,  467,  468,  475
** ... 49 like lines cut
*Elset, elset=Set-1, instance=P160-1
    1,    2,    3,    4,    5,    6,    7,    8,    9,   10,   11,   12,   13,   14,   15,   16
   17,   18,   19,   20,   21,   22,   23,   24,   25,   26,   27,   28,   29,   30,   31,   32
   33,   34,   35,   36,   37,   38,   39,   40,   41,   42,   43,   44,   45,   46,   47,   48
   49,   50,   51,   52,   53,   54,   55,   56,   57,   58,   59,   60,   61,   62,   63,   64
   65,   66,   67,   68,   69,   70,   71,   72,   73,   74,   75,   76,   77,   78,  145,  146
  147,  148,  149,  150,  217,  218,  219,  220,  221,  222,  289,  290,  291,  292,  293,  294
  361,  362,  363,  364,  365,  366,  433,  434,  435,  436,  437,  438,  505,  506,  507,  508
  509,  510,  577,  578,  579,  580,  581,  582,  649,  650,  651,  652,  653,  654,  721,  722
  723,  724,  725,  726,  793,  794,  795,  796,  797,  798,  865,  866,  867,  868,  869,  870
  937,  938,  939,  940,  941,  942, 1009, 1010, 1011, 1012, 1013, 1014, 1015, 1016, 1017, 1018
 1019, 1020, 1021, 1022, 1023, 1024, 1025, 1026, 1027, 1028, 1029, 1030, 1031, 1032, 1033, 1034
 1035, 1036, 1037, 1038, 1039, 1040, 1041, 1042, 1043, 1044, 1045, 1046, 1047, 1048, 1049, 1050
 1051, 1052, 1053, 1054, 1055, 1056, 1057, 1058, 1059, 1060, 1061, 1062, 1063, 1064, 1065, 1066
 1067, 1068, 1069, 1070, 1071, 1072, 1073, 1074, 1075, 1076, 1077, 1078, 1079, 1080, 1081, 1082
 1083, 1084, 1085, 1086, 1099, 1112, 1125, 1138, 1151, 1164, 1177, 1190, 1203, 1216, 1229, 1242
 1255, 1268, 1281, 1294, 1307, 1320, 1333, 1346, 1359, 1372, 1385, 1398, 1411, 1424, 1437, 1450
 1463, 1476, 1489, 1502, 1515, 1528, 1541, 1554, 1567, 1580, 1593, 1606, 1619, 1632, 1645, 1658
 1671, 1684, 1697, 1710, 1723, 1736, 1749, 1762, 1775, 1788, 1801, 1814, 1827, 1840, 1853, 1866
 1879, 1892, 1905, 1918, 1931, 1944, 1957, 1970, 1983, 1996, 2009, 2022, 2035, 2048, 2061, 2074
 2087, 2100, 2101, 2102, 2103, 2104, 2105, 2106, 2107, 2108, 2109, 2110, 2111, 2112, 2113, 2114
** ... 38 like lines cut
*Nset, nset=Set-2, instance=P160-1
    2,    3,    5,    6,    9,   11,   19,   20,   23,   24,   27,   28,   31,   51,   52,   53
   54,   55,   56,   57,   58,   59,   60,   61,   83,   84,   85,   86,   87,   88,   89,   90
   91,   92,   93,  136,  137,  138,  139,  140,  141,  142,  143,  144,  145,  146,  147,  148
  149,  150,  151,  152,  153,  154,  155,  156,  157,  158,  159,  160,  161,  162,  163,  164
  165,  166,  167,  168,  169,  170,  171,  172,  173,  191,  192,  193,  194,  195,  196,  197
  198,  199,  200,  201,  202,  233,  234,  235,  236,  237,  238,  239,  240,  241,  242,  243
  244,  245,  337,  338,  339,  340,  341,  342,  343,  344,  345,  346,  347,  348,  349,  350
  351,  352,  353,  354,  355,  356,  357,  358,  359,  393,  394,  395,  396,  397,  398,  399
  400,  401,  402,  403,  404,  405,  406,  407,  408,  409,  410,  439,  440,  441,  442,  443
  444,  445,  446,  447,  448,  449,  450,  451,  452,  453,  454,  455,  456,  485,  486,  487
  488,  489,  490,  491,  492,  493,  494,  495,  496,  497,  498,  499,  500,  501,  502,  918
  919,  920,  921,  922,  923,  924,  925,  926,  927,  928,  929,  930,  931,  932,  933,  934
  935,  936,  937,  938,  939,  940,  941,  942,  943,  944,  945,  946,  947,  948,  949,  950
  951,  952,  953,  954,  955,  956,  957,  958,  959,  960,  961,  962,  963,  964,  965,  966
  967,  968,  969,  970,  971,  972,  973,  974,  975,  976,  977,  978,  979,  980,  981,  982
  983,  984,  985,  986,  987,  988,  989,  990,  991,  992,  993,  994,  995,  996,  997,  998
  999, 1000, 1001, 1002, 1003, 1004, 1005, 1006, 1007, 1008, 1009, 1010, 1011, 1012, 1013, 1014
 1015, 1016, 1017, 1018, 1019, 1020, 1021, 1022, 1023, 1024, 1025, 1026, 1027, 1028, 1029, 1030
 1031, 1032, 1033, 1034, 1035, 1036, 1037, 1038, 1039, 1040, 1041, 1042, 1043, 1044, 1045, 1046
 1047, 1048, 1049, 1050, 1051, 1052, 1053, 1054, 1055, 1056, 1057, 1058, 1059, 1060, 1376, 1377
** ... 23 like lines cut
*Elset, elset=Set-2, instance=P160-1
    6,   12,   18,   24,   30,   36,   42,   48,   54,   60,   66,   72,   78,   84,   90,   96
  102,  108,  114,  120,  126,  132,  138,  144,  150,  156,  162,  168,  174,  180,  186,  192
  198,  204,  210,  216,  222,  228,  234,  240,  246,  252,  258,  264,  270,  276,  282,  288
  294,  300,  306,  312,  318,  324,  330,  336,  342,  348,  354,  360,  366,  372,  378,  384
  390,  396,  402,  408,  414,  420,  426,  432,  438,  444,  450,  456,  462,  468,  474,  480
  486,  492,  498,  504,  510,  516,  522,  528,  534,  540,  546,  552,  558,  564,  570,  576
  582,  588,  594,  600,  606,  612,  618,  624,  630,  636,  642,  648,  654,  660,  666,  672
  678,  684,  690,  696,  702,  708,  714,  720,  726,  732,  738,  744,  750,  756,  762,  768
  774,  780,  786,  792,  798,  804,  810,  816,  822,  828,  834,  840,  846,  852,  858,  864
  870,  876,  882,  888,  894,  900,  906,  912,  918,  924,  930,  936,  942,  948,  954,  960
  966,  972,  978,  984,  990,  996, 1002, 1008, 1009, 1010, 1011, 1012, 1013, 1014, 1015, 1016
 1017, 1018, 1019, 1020, 1021, 1087, 1088, 1089, 1090, 1091, 1092, 1093, 1094, 1095, 1096, 1097
 1098, 1099, 1165, 1166, 1167, 1168, 1169, 1170, 1171, 1172, 1173, 1174, 1175, 1176, 1177, 1243
 1244, 1245, 1246, 1247, 1248, 1249, 1250, 1251, 1252, 1253, 1254, 1255, 1321, 1322, 1323, 1324
 1325, 1326, 1327, 1328, 1329, 1330, 1331, 1332, 1333, 1399, 1400, 1401, 1402, 1403, 1404, 1405
 1406, 1407, 1408, 1409, 1410, 1411, 1477, 1478, 1479, 1480, 1481, 1482, 1483, 1484, 1485, 1486
 1487, 1488, 1489, 1555, 1556, 1557, 1558, 1559, 1560, 1561, 1562, 1563, 1564, 1565, 1566, 1567
 1633, 1634, 1635, 1636, 1637, 1638, 1639, 1640, 1641, 1642, 1643, 1644, 1645, 1711, 1712, 1713
 1714, 1715, 1716, 1717, 1718, 1719, 1720, 1721, 1722, 1723, 1789, 1790, 1791, 1792, 1793, 1794
 1795, 1796, 1797, 1798, 1799, 1800, 1801, 1867, 1868, 1869, 1870, 1871, 1872, 1873, 1874, 1875
** ... 19 like lines cut
*Elset, elset=_Surf-1_S4, internal, instance=P160-1
 2102, 2104, 2106, 2108, 2110, 2112, 2114, 2116, 2118, 2120, 2122, 2124, 2126, 2128, 2130, 2132
 2134, 2136, 2138, 2140, 2142, 2144, 2146, 2148, 2150, 2152, 2154, 2156, 2158, 2160, 2162, 2164
 2166, 2168, 2170, 2172, 2174, 2176, 2178, 2180, 2182, 2184, 2186, 2188, 2190, 2192, 2194, 2196
 2198, 2200, 2202, 2204, 2206, 2208, 2210, 2212, 2214, 2216, 2218, 2220, 2222, 2224, 2226, 2228
 2230, 2232, 2234, 2236, 2238, 2240, 2242, 2244, 2246, 2248, 2250, 2252, 2254, 2256, 2258, 2260
 2262, 2264, 2266, 2268, 2270, 2272, 2274, 2276, 2278, 2280, 2282, 2284, 2286, 2288, 2290, 2292
 2294, 2296, 2298, 2300, 2302, 2304, 2306, 2308, 2310, 2312, 2314, 2316, 2318, 2320, 2322, 2324
 2326, 2328, 2330, 2332, 2334, 2336, 2338, 2340, 2342, 2344, 2346, 2348, 2350, 2352, 2354, 2356
 2358, 2360, 2362, 2364, 2366, 2368, 2370, 2372, 2374, 2376, 2378, 2380, 2382, 2384, 2386, 2388
 2390, 2392, 2394, 2396, 2398, 2400, 2402, 2404, 2406, 2408, 2410, 2412, 2414, 2416, 2418, 2420
 2422, 2424, 2426, 2428, 2430, 2432, 2434, 2436, 2438, 2440, 2442, 2444, 2446, 2448, 2450, 2452
 2454, 2456, 2458, 2460, 2462, 2464, 4622, 4624, 4626, 4628, 4630, 4632, 4634, 4636, 4638, 4640
 4642, 4644, 4646, 4648, 4650, 4652, 4654, 4656, 4658, 4660, 4662, 4664, 4666, 4668, 4670, 4672
 5038, 5040, 5042, 5044, 5046, 5048, 5050, 5052, 5054, 5056, 5058, 5060, 5062, 5064, 5066, 5068
 5070, 5072, 5074, 5076, 5078, 5080, 5082, 5084
*Elset, elset=_Surf-1_S3, internal, instance=P160-1
 2465, 2466, 2467, 2468, 2469, 2470, 2471, 2472, 2473, 2474, 2475, 2476, 2489, 2490, 2491, 2492
 2493, 2494, 2495, 2496, 2497, 2498, 2499, 2500, 2513, 2514, 2515, 2516, 2517, 2518, 2519, 2520
 2521, 2522, 2523, 2524, 2537, 2538, 2539, 2540, 2541, 2542, 2543, 2544, 2545, 2546, 2547, 2548
 2561, 2562, 2563, 2564, 2565, 2566, 2567, 2568, 2569, 2570, 2571, 2572, 2585, 2586, 2587, 2588
 2589, 2590, 2591, 2592, 2593, 2594, 2595, 2596, 2609, 2610, 2611, 2612, 2613, 2614, 2615, 2616
 2617, 2618, 2619, 2620, 2633, 2634, 2635, 2636, 2637, 2638, 2639, 2640, 2641, 2642, 2643, 2644
 2657, 2658, 2659, 2660, 2661, 2662, 2663, 2664, 2665, 2666, 2667, 2668, 2681, 2682, 2683, 2684
 2685, 2686, 2687, 2688, 2689, 2690, 2691, 2692, 2705, 2706, 2707, 2708, 2709, 2710, 2711, 2712
 2713, 2714, 2715, 2716, 2729, 2730, 2731, 2732, 2733, 2734, 2735, 2736, 2737, 2738, 2739, 2740
 2753, 2754, 2755, 2756, 2757, 2758, 2759, 2760, 2761, 2762, 2763, 2764, 2777, 2778, 2779, 2780
 2781, 2782, 2783, 2784, 2785, 2786, 2787, 2788
*Surface, type=ELEMENT, name=Surf-1
_Surf-1_S4, S4
_Surf-1_S3, S3
*End Assembly
** 
** MATERIALS
** 
*Material, name=Material-1
*Elastic
 31622.8, 0.2
** ----------------------------------------------------------------
** 
** STEP: Step-1
** 
*Step, name=Step-1, nlgeom=NO
*Static
1., 1., 1e-05, 1.
** 
** BOUNDARY CONDITIONS
** 
** Name: BC-1 Type: Symmetry/Antisymmetry/Encastre
*Boundary
Set-1, ZASYMM
** Name: BC-2 Type: Symmetry/Antisymmetry/Encastre
*Boundary
Set-2, ENCASTRE
** 
** LOADS
** 
** Name: Load-1   Type: Pressure
*Dsload
Surf-1, P, 0.8
** 
** OUTPUT REQUESTS
** 
*Restart, write, frequency=0
** 
** FIELD OUTPUT: F-Output-2
** 
*Output, field
*Node Output
U, 
*Element Output, directions=YES
E, S
** 
** FIELD OUTPUT: F-Output-1
** 
*Output, field, variable=PRESELECT
** 
** HISTORY OUTPUT: H-Output-1
** 
*Output, history, variable=PRESELECT
*End Step
