1

   Abaqus 3DEXPERIENCE R2018x                                  Date 22-Nov-2024   Time 23:31:21
   For use by INDIAN INSTITUTE OF TECHNOLOGY under license from Dassault Systemes or its subsidiary.



                         The Abaqus Software is a product of:

                           Dassault Systemes SIMULIA Corp.
                           1301 Atwood Avenue, Suite 101W
                              Johnston, RI 02919, USA
 


                   The Abaqus Software is available only under license
                   from Dassault Systemes or its subsidiary and may be
                   used or reproduced only in accordance with the terms
                   of such license.
 
                          On machine DESKTOP-M4VAJAV 
                          you are authorized to run
                          Abaqus/Standard until 09-Apr-2025

                          Your site id is: 200000000145531 


 
                    For assistance or any other information you may
                    obtain contact information for your local office
                    from the world wide web at:

                      http://www.3ds.com/products/simulia/locations/

 
                * * * * * * * * * * * * * * * * * * * * * * * * * * * * * * 
                *                                                         * 
                *                   *****************                     * 
                *                   *  N O T I C E  *                     * 
                *                   *****************                     * 
                *                                                         * 
                *                                                         * 
                *               Abaqus 3DEXPERIENCE R2018x                * 
                *                                                         * 
                *          BUILD ID: 2017_11_07-22.51.41 127140           * 
                *                                                         * 
                *                                                         * 
                *  Please make sure you are using                         * 
                *  release 3DEXPERIENCE R2018x manuals                    * 
                *  plus the notes accompanying this release.              * 
                *                                                         * 
                *                                                         * 
                *                                                         * 
                *                                                         * 
                *                                                         * 
                *   This program may not be used for commercial purposes  * 
                *           without payment of a commercial fee.          * 
                *                                                         * 
                * * * * * * * * * * * * * * * * * * * * * * * * * * * * * * 


 



     PROCESSING PART, INSTANCE, AND ASSEMBLY INFORMATION
   *******************************************************


     END PROCESSING PART, INSTANCE, AND ASSEMBLY INFORMATION
   ***********************************************************




     OPTIONS BEING PROCESSED
   ***************************


  *Heading
  *Node
  *Element, type=C3D8R
  *Nset, nset=ASSEMBLY_P160-1_SET-1
  *Elset, elset=ASSEMBLY_P160-1_SET-1
  *Nset, nset=ASSEMBLY_SET-1
  *Nset, nset=ASSEMBLY_SET-2
  *Elset, elset=ASSEMBLY_SET-1
  *Elset, elset=ASSEMBLY_SET-2
  *Elset, elset=ASSEMBLY__SURF-1_S3
  *Elset, elset=ASSEMBLY__SURF-1_S4
  *material, name=MATERIAL-1
  *elastic
  *solidsection, elset=ASSEMBLY_P160-1_SET-1, material=MATERIAL-1
  *solidsection, elset=ASSEMBLY_P160-1_SET-1, material=MATERIAL-1
  *surface, type=ELEMENT, name=ASSEMBLY_SURF-1
  *surface, type=ELEMENT, name=ASSEMBLY_SURF-1
  *boundary
  *boundary
  *boundary
  *boundary
  *surface, type=ELEMENT, name=ASSEMBLY_SURF-1
  *output, field
  *output, field, variable=PRESELECT
  *output, history, variable=PRESELECT
  *elementoutput, directions=YES
  *output, field
  *output, field, variable=PRESELECT
  *output, history, variable=PRESELECT
  *elementoutput, directions=YES
  *output, field
  *output, field, variable=PRESELECT
  *output, history, variable=PRESELECT
  *elementoutput, directions=YES
  
                               E L E M E N T   Q U A L I T Y  C H E C K S        
  
  
 ***NOTES: DISTORTED ISOPARAMETRIC ELEMENTS: ANGLE BETWEEN ISOPARAMETRIC LINES 
           IS LESS THAN 45 DEGREES OR GREATER THAN 135 DEGREES.
  
           TETRAHEDRAL QUALITY MEASURE: VOLUME OF TETRAHEDRON DIVIDED BY THE 
           VOLUME OF EQUILATERAL TETRAHEDRON WITH SAME CIRCUMSPHERE RADIUS; 
           0 FOR DEGENERATE TETRAHEDRON AND 1 FOR EQUILATERIAL TETRAHEDRON. IT 
           IS RECOMMENDED THAT THE TETRAHEDRAL QUALITY MEASURE BE GREATER THAN 
           0.02, THE MIN INTERIOR (DIHEDRAL) ANGLE BE GREATER THAN 10 DEGREES, 
           AND THE MAX INTERIOR (DIHEDRAL) ANGLE BE LESS THAN 160 DEGREES. 
  
           MODIFIED TETRAHEDRAL QUALITY MEASURE: ANGLES BETWEEN THE TWO LINE 
           SEGMENTS ON EACH EDGE; THE EDGES OF MODIFIED TETRAHEDRAL SHOULD BE 
           AS STRAIGHT AS POSSIBLE. IT IS RECOMMENDED THAT THE ANGLE BETWEEN 
           THE TWO LINE SEGMENTS ON EACH EDGE IS BETWEEN 160 AND 180 DEGREES. 
  
           TRIANGULAR QUALITY MEASURE: AREA OF TRIANGLE DIVIDED BY THE AREA OF 
           EQUILATERAL TRIANGLE WITH SAME CIRCUMCIRCLE RADIUS; 0 FOR DEGENERATE 
           TRIANGLE AND 1 FOR EQUILATERAL TRIANGLE. IT IS RECOMMENDED THAT THE
           TRIANGULAR QUALITY MEASURE BE GREATER THAN 0.01, THE MIN INTERIOR 
           ANGLE BE GREATER THAN 10 DEGREES, AND THE MAX INTERIOR ANGLE BE LESS 
           THAN 160 DEGREES. 
  
           NODAL ADJUSTMENTS ARISING FROM CONTACT INTERACTIONS AND/OR TIE 
           CONSTRAINTS CAN CAUSE SEVERE ELEMENT DISTORTION. IT MAY BE NECESSARY 
           TO REMESH IN ORDER TO REDUCE THE AMOUNT OF ADJUSTMENT. 

 ***WARNING: 137 elements are distorted. Either the isoparametric angles are 
             out of the suggested limits or the triangular or tetrahedral 
             quality measure is bad. The elements have been identified in 
             element set WarnElemDistorted.
  
 --------------------------------------------------------------------------------
 Distorted isoparametric elements
  
     Element       Min/max angle   Adjusted nodes 
 ---------------- ---------------- -------------- 
      P160-1.5428          44.7187       NO       
      P160-1.5432          43.9665       NO       
      P160-1.5436          43.4477       NO       
      P160-1.5440           43.156       NO       
      P160-1.5444          43.0157       NO       
      P160-1.5448          42.9556       NO       
      P160-1.5452          42.9321       NO       
      P160-1.5456          42.9233       NO       
      P160-1.5460          42.9202       NO       
      P160-1.5464          42.9211       NO       
      P160-1.5468          42.9319       NO       
      P160-1.5472          42.9621       NO       
      P160-1.5476          43.0029       NO       
      P160-1.5480          42.5344       NO       
      P160-1.5484             41.6       NO       
      P160-1.5488          40.9271       NO       
      P160-1.5492          40.3589       NO       
      P160-1.5496          39.9715       NO       
      P160-1.5500           39.752       NO       
      P160-1.5504          39.6453       NO       
      P160-1.5508           39.599       NO       
      P160-1.5512          39.5807       NO       
      P160-1.5516          39.5738       NO       
      P160-1.5520          39.5711       NO       
      P160-1.5524          39.5709       NO       
      P160-1.5528          39.5766       NO       
      P160-1.5532          39.5922       NO       
      P160-1.5536          39.6038       NO       
      P160-1.5540          39.2056       NO       
      P160-1.6629          44.3465       NO       
      P160-1.6630          43.8795       NO       
      P160-1.6631          43.7244       NO       
      P160-1.6632          43.6675       NO       
      P160-1.6633          43.6464       NO       
      P160-1.6634           43.639       NO       
      P160-1.6635          43.6365       NO       
      P160-1.6636          43.6357       NO       
      P160-1.6637          43.6355       NO       
      P160-1.6638          43.6358       NO       
      P160-1.6639          43.6377       NO       
      P160-1.6640          43.6582       NO       
      P160-1.6641          43.8149       NO       
      P160-1.6642          44.4065       NO       
      P160-1.6693          41.7292       NO       
      P160-1.6694          41.3107       NO       
      P160-1.6695          41.1742       NO       
      P160-1.6696          41.1237       NO       
      P160-1.6697          41.1045       NO       
      P160-1.6698          41.0976       NO       
      P160-1.6699          41.0953       NO       
      P160-1.6700          41.0946       NO       
      P160-1.6701          41.0944       NO       
      P160-1.6702          41.0947       NO       
      P160-1.6703          41.0967       NO       
      P160-1.6704          41.1179       NO       
      P160-1.6705          41.2725       NO       
      P160-1.6706          41.8313       NO       
      P160-1.6707          42.8253       NO       
      P160-1.6708          43.2381       NO       
      P160-1.6757          38.5919       NO       
      P160-1.6758          38.3083       NO       
      P160-1.6759          38.2149       NO       
      P160-1.6760          38.1787       NO       
      P160-1.6761          38.1641       NO       
      P160-1.6762          38.1586       NO       
      P160-1.6763          38.1567       NO       
      P160-1.6764          38.1561       NO       
      P160-1.6765          38.1559       NO       
      P160-1.6766          38.1562       NO       
      P160-1.6767          38.1579       NO       
      P160-1.6768          38.1744       NO       
      P160-1.6769          38.2986       NO       
      P160-1.6770          38.7375       NO       
      P160-1.6771          39.5033       NO       
      P160-1.6772          39.8732       NO       
      P160-1.8774          35.1597       NO       
      P160-1.8775          43.2468       NO       
      P160-1.8778          34.8121       NO       
      P160-1.8779          42.6239       NO       
      P160-1.8782          34.4031       NO       
      P160-1.8783          41.9226       NO       
      P160-1.8786           34.225       NO       
      P160-1.8787          41.5358       NO       
      P160-1.8790          34.1935       NO       
      P160-1.8791          41.4188       NO       
      P160-1.8794          34.1913       NO       
      P160-1.8795          41.4005       NO       
      P160-1.8798           34.191       NO       
      P160-1.8799          41.3973       NO       
      P160-1.8802           34.191       NO       
      P160-1.8803          41.3966       NO       
      P160-1.8806          34.1911       NO       
      P160-1.8807          41.3966       NO       
      P160-1.8810          34.1913       NO       
      P160-1.8811          41.3971       NO       
      P160-1.8814          34.1921       NO       
      P160-1.8815          41.3987       NO       
      P160-1.8818          34.1945       NO       
      P160-1.8819          41.4034       NO       
      P160-1.8822          34.2009       NO       
      P160-1.8823          41.4157       NO       
      P160-1.8826          34.2167       NO       
      P160-1.8827          41.4387       NO       
      P160-1.8830          34.2507       NO       
      P160-1.8831          41.4603       NO       
      P160-1.8834          34.3226       NO       
      P160-1.8835          41.4468       NO       
      P160-1.8982          34.6027       NO       
      P160-1.8983          34.8456       NO       
      P160-1.8984          34.8564       NO       
      P160-1.8985          34.8553       NO       
      P160-1.8986           34.856       NO       
      P160-1.8987          34.8572       NO       
      P160-1.8988          34.8585       NO       
      P160-1.8989          34.8613       NO       
      P160-1.8990          34.8692       NO       
      P160-1.8991          34.8902       NO       
      P160-1.8992          34.9414       NO       
      P160-1.8993          35.0532       NO       
      P160-1.8994          35.2646       NO       
      P160-1.8995          35.6027       NO       
      P160-1.8996          36.0637       NO       
      P160-1.8997          41.7546       NO       
      P160-1.8998           42.073       NO       
      P160-1.8999          42.0641       NO       
      P160-1.9000          42.0649       NO       
      P160-1.9001          42.0693       NO       
      P160-1.9002          42.0719       NO       
      P160-1.9003          42.0733       NO       
      P160-1.9004          42.0763       NO       
      P160-1.9005          42.0853       NO       
      P160-1.9006          42.1118       NO       
      P160-1.9007          42.1834       NO       
      P160-1.9008          42.3558       NO       
      P160-1.9009          42.7033       NO       
      P160-1.9010          43.2652       NO       
      P160-1.9011          43.9765       NO       
  
  
  *amplitude, name=AMP-1
  *Step, name=Step-1, nlgeom=NO
  *output, field
  *output, field, variable=PRESELECT
  *output, history, variable=PRESELECT
  *Step, name=Step-1, nlgeom=NO
  *Step, name=Step-1, nlgeom=NO
  *static
  *boundary
  *boundary
  *dsload
  *output, field
  *nodeoutput
  *elementoutput, directions=YES
  *output, field, variable=PRESELECT
  *output, history, variable=PRESELECT
  *endstep
  *Step, name=Step-1, nlgeom=NO
  *static
  *boundary
  *boundary
  *endstep

     - (RAMP) OR (STEP) - INDICATE USE OF DEFAULT AMPLITUDES ASSOCIATED WITH THE STEP



                            P R O B L E M   S I Z E


          NUMBER OF ELEMENTS IS                                  9176
          NUMBER OF NODES IS                                    10816
          NUMBER OF NODES DEFINED BY THE USER                   10816
          TOTAL NUMBER OF VARIABLES IN THE MODEL                32448
          (DEGREES OF FREEDOM PLUS MAX NO. OF ANY LAGRANGE MULTIPLIER
           VARIABLES. INCLUDE *PRINT,SOLVE=YES TO GET THE ACTUAL NUMBER.)



                              END OF USER INPUT PROCESSING



     JOB TIME SUMMARY
       USER TIME (SEC)      =   1.9000    
       SYSTEM TIME (SEC)    =  0.50000    
       TOTAL CPU TIME (SEC) =   2.4000    
       WALLCLOCK TIME (SEC) =          2
1

   Abaqus 3DEXPERIENCE R2018x                                  Date 22-Nov-2024   Time 23:31:27
   For use by INDIAN INSTITUTE OF TECHNOLOGY under license from Dassault Systemes or its subsidiary.

                                                                                               STEP    1  INCREMENT    1
                                                                                          TIME COMPLETED IN THIS STEP   0.00    


                        S T E P       1     S T A T I C   A N A L Y S I S


                                                                                          

     AUTOMATIC TIME CONTROL WITH -
          A SUGGESTED INITIAL TIME INCREMENT OF                0.100    
          AND A TOTAL TIME PERIOD OF                            1.00    
          THE MINIMUM TIME INCREMENT ALLOWED IS                1.000E-05
          THE MAXIMUM TIME INCREMENT ALLOWED IS                 1.00    

     LINEAR EQUATION SOLVER TYPE         DIRECT SPARSE
  
                   M E M O R Y   E S T I M A T E
  
 PROCESS      FLOATING PT       MINIMUM MEMORY        MEMORY TO
              OPERATIONS           REQUIRED          MINIMIZE I/O
             PER ITERATION           (MB)               (MB)
  
     1          1.31E+10               39                214
  
 NOTE:
      (1) SINCE ABAQUS DOES NOT PRE-ALLOCATE MEMORY AND ONLY ALLOCATES MEMORY AS NEEDED DURING THE ANALYSIS,
          THE MEMORY REQUIREMENT PRINTED HERE CAN ONLY BE VIEWED AS A GENERAL GUIDELINE BASED ON THE BEST
          KNOWLEDGE AVAILABLE AT THE BEGINNING OF A STEP BEFORE THE SOLUTION PROCESS HAS BEGUN.
      (2) THE ESTIMATE IS NORMALLY UPDATED AT THE BEGINNING OF EVERY STEP. IT IS THE MAXIMUM VALUE OF THE
          ESTIMATE FROM THE CURRENT STEP TO THE LAST STEP OF THE ANALYSIS, WITH UNSYMMETRIC SOLUTION TAKEN
          INTO ACCOUNT IF APPLICABLE. 
      (3) SINCE THE ESTIMATE IS BASED ON THE ACTIVE DEGREES OF FREEDOM IN THE FIRST ITERATION OF THE 
          CURRENT STEP, THE MEMORY ESTIMATE MIGHT BE SIGNIFICANTLY DIFFERENT THAN ACTUAL USAGE FOR 
          PROBLEMS WITH SUBSTANTIAL CHANGES IN ACTIVE DEGREES OF FREEDOM BETWEEN STEPS (OR EVEN WITHIN
          THE SAME STEP). EXAMPLES ARE: PROBLEMS WITH SIGNIFICANT CONTACT CHANGES, PROBLEMS WITH MODEL
          CHANGE, PROBLEMS WITH BOTH STATIC STEP AND STEADY STATE DYNAMIC PROCEDURES WHERE ACOUSTIC 
          ELEMENTS WILL ONLY BE ACTIVATED IN THE STEADY STATE DYNAMIC STEPS.
      (4) FOR MULTI-PROCESS EXECUTION, THE ESTIMATED VALUE OF FLOATING POINT OPERATIONS FOR EACH PROCESS
          IS BASED ON AN INITIAL SCHEDULING OF OPERATIONS AND MIGHT NOT REFLECT THE ACTUAL FLOATING 
          POINT OPERATIONS COMPLETED ON EACH PROCESS. OPERATIONS ARE DYNAMICALLY BALANCED DURING EXECUTION, 
          SO THE ACTUAL BALANCE OF OPERATIONS BETWEEN PROCESSES IS EXPECTED TO BE BETTER THAN THE ESTIMATE
          PRINTED HERE.
      (5) THE UPPER LIMIT OF MEMORY THAT CAN BE ALLOCATED BY ABAQUS WILL IN GENERAL DEPEND ON THE VALUE OF
          THE "MEMORY" PARAMETER AND THE AMOUNT OF PHYSICAL MEMORY AVAILABLE ON THE MACHINE. PLEASE SEE
          THE "ABAQUS ANALYSIS USER'S MANUAL" FOR MORE DETAILS. THE ACTUAL USAGE OF MEMORY AND OF DISK
          SPACE FOR SCRATCH DATA WILL DEPEND ON THIS UPPER LIMIT AS WELL AS THE MEMORY REQUIRED TO MINIMIZE
          I/O. IF THE MEMORY UPPER LIMIT IS GREATER THAN THE MEMORY REQUIRED TO MINIMIZE I/O, THEN THE ACTUAL
          MEMORY USAGE WILL BE CLOSE TO THE ESTIMATED "MEMORY TO MINIMIZE I/O" VALUE, AND THE SCRATCH DISK
          USAGE WILL BE CLOSE-TO-ZERO; OTHERWISE, THE ACTUAL MEMORY USED WILL BE CLOSE TO THE PREVIOUSLY
          MENTIONED MEMORY LIMIT, AND THE SCRATCH DISK USAGE WILL BE ROUGHLY PROPORTIONAL TO THE DIFFERENCE
          BETWEEN THE ESTIMATED "MEMORY TO MINIMIZE I/O" AND THE MEMORY UPPER LIMIT. HOWEVER ACCURATE
          ESTIMATE OF THE SCRATCH DISK SPACE IS NOT POSSIBLE.
      (6) USING "*RESTART, WRITE" CAN GENERATE A LARGE AMOUNT OF DATA WRITTEN IN THE WORK DIRECTORY.


          THE ANALYSIS HAS BEEN COMPLETED



                              ANALYSIS COMPLETE
                              WITH      1 WARNING MESSAGES ON THE DAT FILE



     JOB TIME SUMMARY
       USER TIME (SEC)      =   18.200    
       SYSTEM TIME (SEC)    =  0.60000    
       TOTAL CPU TIME (SEC) =   18.800    
       WALLCLOCK TIME (SEC) =         20
