*Heading
** Job name: 170 Model name: 170
** Generated by: Abaqus/CAE 2018
*Preprint, echo=NO, model=NO, history=NO, contact=NO
**
** PARTS
**
*Part, name=P170
*End Part
**  
**
** ASSEMBLY
**
*Assembly, name=Assembly
**  
*Instance, name=P170-1, part=P170
*Node
      1,   268.467865,         77.5,   66.6666641
      2,   268.467865,         77.5,           0.
      3,   268.467865,         155.,           0.
      4,   268.467865,         155.,   66.6666641
      5,   183.688553,   28.5526314,           0.
      6,     98.35569,   154.264572,           0.
      7,    120.64624,   155.170532,   64.6740265
      8,   173.776566,   22.8299503,   79.9934769
      9,   268.467865,        232.5,           0.
     10,   268.467865,        232.5,   66.6666641
     11,   183.688553,   281.447357,           0.
     12,   173.757645,   287.180969,   79.7599106
     13,   268.467865,        232.5,         100.
     14,   268.467865,         155.,         100.
     15,   184.066833,   281.228973,         100.
     16,   184.066849,         155.,         100.
     17,   268.467865,         77.5,         100.
     18,   184.066833,     28.77104,         100.
     19,   134.233932,           0.,           0.
     20,   53.6935768,         46.5,           0.
** ... 6148 like lines cut
*Element, type=C3D8R
   1,  121, 1006, 3135,  764,    1,   46,  654,   77
   2, 1006, 1007, 3136, 3135,   46,   47,  655,  654
   3, 1007, 1008, 3137, 3136,   47,   48,  656,  655
   4, 1008, 1009, 3138, 3137,   48,   49,  657,  656
   5, 1009, 1010, 3139, 3138,   49,   50,  658,  657
   6, 1010,  143,  885, 3139,   50,    2,   51,  658
   7,  764, 3135, 3140,  765,   77,  654,  659,   76
   8, 3135, 3136, 3141, 3140,  654,  655,  660,  659
   9, 3136, 3137, 3142, 3141,  655,  656,  661,  660
  10, 3137, 3138, 3143, 3142,  656,  657,  662,  661
  11, 3138, 3139, 3144, 3143,  657,  658,  663,  662
  12, 3139,  885,  886, 3144,  658,   51,   52,  663
  13,  765, 3140, 3145,  766,   76,  659,  664,   75
  14, 3140, 3141, 3146, 3145,  659,  660,  665,  664
  15, 3141, 3142, 3147, 3146,  660,  661,  666,  665
  16, 3142, 3143, 3148, 3147,  661,  662,  667,  666
  17, 3143, 3144, 3149, 3148,  662,  663,  668,  667
  18, 3144,  886,  887, 3149,  663,   52,   53,  668
  19,  766, 3145, 3150,  767,   75,  664,  669,   74
  20, 3145, 3146, 3151, 3150,  664,  665,  670,  669
** ... 4956 like lines cut
*Nset, nset=Set-1, generate
    1,  6168,     1
*Elset, elset=Set-1, generate
    1,  4976,     1
** Section: Section-1
*Solid Section, elset=Set-1, material=Material-1
,
*End Instance
**  
*Nset, nset=Set-1, instance=P170-1
    1,    2,    3,    4,    5,    8,    9,   10,   11,   12,   13,   14,   15,   17,   18,   19
   20,   21,   22,   23,   24,   25,   26,   27,   28,   29,   30,   31,   32,   33,   34,   35
   37,   39,   40,   41,   42,   43,   44,   45,   46,   47,   48,   49,   50,   51,   52,   53
   54,   55,   56,   57,   58,   59,   60,   61,   62,   63,   64,   65,   66,   67,   68,   69
   70,   71,   72,   73,   74,   75,   76,   77,   78,   79,   80,   81,   82,  121,  122,  123
  124,  125,  126,  127,  128,  129,  130,  131,  143,  144,  145,  146,  147,  148,  149,  150
  151,  152,  153,  154,  155,  156,  157,  158,  159,  160,  161,  162,  163,  164,  165,  166
  167,  168,  169,  170,  171,  172,  173,  174,  175,  176,  177,  178,  179,  180,  192,  193
  194,  195,  196,  208,  209,  210,  211,  212,  213,  214,  215,  216,  217,  218,  219,  220
  221,  222,  223,  224,  225,  226,  227,  228,  229,  230,  231,  232,  233,  234,  235,  236
  237,  238,  239,  240,  241,  242,  243,  244,  245,  246,  271,  272,  273,  274,  275,  276
  277,  278,  279,  280,  281,  282,  283,  284,  285,  286,  287,  288,  289,  290,  291,  292
  293,  294,  306,  307,  308,  309,  310,  311,  312,  313,  314,  315,  316,  317,  318,  319
  320,  321,  322,  323,  324,  325,  326,  327,  328,  329,  330,  331,  332,  333,  334,  335
  342,  343,  344,  345,  346,  347,  348,  349,  350,  351,  352,  353,  354,  355,  356,  357
  358,  365,  366,  367,  368,  369,  370,  371,  372,  373,  374,  375,  376,  377,  378,  379
  380,  381,  382,  383,  384,  385,  386,  387,  395,  396,  397,  398,  399,  400,  401,  402
  403,  404,  405,  406,  407,  415,  416,  417,  418,  419,  420,  421,  422,  423,  424,  425
  426,  427,  428,  429,  430,  431,  432,  433,  434,  435,  436,  437,  444,  445,  446,  447
  448,  449,  450,  451,  452,  453,  454,  455,  456,  463,  464,  465,  466,  467,  468,  469
** ... 50 like lines cut
*Elset, elset=Set-1, instance=P170-1
    1,    2,    3,    4,    5,    6,    7,    8,    9,   10,   11,   12,   13,   14,   15,   16
   17,   18,   19,   20,   21,   22,   23,   24,   25,   26,   27,   28,   29,   30,   31,   32
   33,   34,   35,   36,   37,   38,   39,   40,   41,   42,   43,   44,   45,   46,   47,   48
   49,   50,   51,   52,   53,   54,   55,   56,   57,   58,   59,   60,   61,   62,   63,   64
   65,   66,   67,   68,   69,   70,   71,   72,   73,   74,   75,   76,   77,   78,  145,  146
  147,  148,  149,  150,  217,  218,  219,  220,  221,  222,  289,  290,  291,  292,  293,  294
  361,  362,  363,  364,  365,  366,  433,  434,  435,  436,  437,  438,  505,  506,  507,  508
  509,  510,  577,  578,  579,  580,  581,  582,  649,  650,  651,  652,  653,  654,  721,  722
  723,  724,  725,  726,  793,  794,  795,  796,  797,  798,  865,  866,  867,  868,  869,  870
  871,  872,  873,  874,  875,  876,  877,  878,  879,  880,  881,  882,  883,  884,  885,  886
  887,  888,  889,  890,  891,  892,  893,  894,  895,  896,  897,  898,  899,  900,  901,  902
  903,  904,  905,  906,  907,  908,  909,  910,  911,  912,  913,  914,  915,  916,  917,  918
  919,  920,  921,  922,  923,  924,  925,  926,  927,  928,  929,  930,  931,  932,  933,  934
  935,  936,  948,  960,  972,  984,  996, 1008, 1020, 1032, 1044, 1056, 1068, 1080, 1092, 1104
 1116, 1128, 1140, 1152, 1164, 1176, 1188, 1200, 1212, 1224, 1236, 1248, 1260, 1272, 1284, 1296
 1308, 1320, 1332, 1344, 1356, 1368, 1380, 1392, 1404, 1416, 1428, 1440, 1452, 1464, 1476, 1488
 1500, 1512, 1524, 1536, 1548, 1560, 1572, 1584, 1596, 1608, 1620, 1632, 1644, 1656, 1668, 1680
 1692, 1704, 1716, 1728, 1729, 1730, 1731, 1732, 1733, 1734, 1735, 1736, 1737, 1738, 1739, 1740
 1741, 1742, 1743, 1744, 1745, 1746, 1747, 1748, 1749, 1750, 1751, 1752, 1753, 1754, 1755, 1756
 1757, 1758, 1759, 1760, 1761, 1762, 1763, 1764, 1765, 1766, 1767, 1801, 1802, 1803, 1837, 1838
** ... 39 like lines cut
*Nset, nset=Set-2, instance=P170-1
    2,    3,    5,    6,    9,   11,   19,   20,   23,   24,   27,   28,   31,   51,   52,   53
   54,   55,   56,   57,   58,   59,   60,   61,   83,   84,   85,   86,   87,   88,   89,   90
   91,   92,   93,  132,  133,  134,  135,  136,  137,  138,  139,  140,  141,  142,  143,  144
  145,  146,  147,  148,  149,  150,  151,  152,  153,  154,  155,  156,  157,  158,  159,  160
  161,  162,  163,  164,  181,  182,  183,  184,  185,  186,  187,  188,  189,  190,  191,  219
  220,  221,  222,  223,  224,  225,  226,  227,  228,  229,  319,  320,  321,  322,  323,  324
  325,  326,  327,  328,  329,  330,  331,  332,  333,  334,  335,  336,  337,  338,  339,  340
  341,  375,  376,  377,  378,  379,  380,  381,  382,  383,  384,  385,  386,  387,  388,  389
  390,  391,  392,  393,  394,  425,  426,  427,  428,  429,  430,  431,  432,  433,  434,  435
  436,  437,  438,  439,  440,  441,  442,  443,  473,  474,  475,  476,  477,  478,  479,  480
  481,  482,  483,  484,  485,  486,  487,  488,  489,  885,  886,  887,  888,  889,  890,  891
  892,  893,  894,  895,  896,  897,  898,  899,  900,  901,  902,  903,  904,  905,  906,  907
  908,  909,  910,  911,  912,  913,  914,  915,  916,  917,  918,  919,  920,  921,  922,  923
  924,  925,  926,  927,  928,  929,  930,  931,  932,  933,  934,  935,  936,  937,  938,  939
  940,  941,  942,  943,  944,  945,  946,  947,  948,  949,  950,  951,  952,  953,  954,  955
  956,  957,  958,  959,  960,  961,  962,  963,  964,  965,  966,  967,  968,  969,  970,  971
  972,  973,  974,  975,  976,  977,  978,  979,  980,  981,  982,  983,  984,  985,  986,  987
  988,  989,  990,  991,  992,  993,  994,  995,  996,  997,  998,  999, 1000, 1001, 1002, 1003
 1004, 1005, 1281, 1282, 1283, 1284, 1285, 1286, 1287, 1288, 1289, 1290, 1291, 1292, 1293, 1294
 1295, 1296, 1297, 1298, 1299, 1300, 1301, 1302, 1303, 1304, 1305, 1306, 1307, 1308, 1309, 1310
** ... 20 like lines cut
*Elset, elset=Set-2, instance=P170-1
    6,   12,   18,   24,   30,   36,   42,   48,   54,   60,   66,   72,   78,   84,   90,   96
  102,  108,  114,  120,  126,  132,  138,  144,  150,  156,  162,  168,  174,  180,  186,  192
  198,  204,  210,  216,  222,  228,  234,  240,  246,  252,  258,  264,  270,  276,  282,  288
  294,  300,  306,  312,  318,  324,  330,  336,  342,  348,  354,  360,  366,  372,  378,  384
  390,  396,  402,  408,  414,  420,  426,  432,  438,  444,  450,  456,  462,  468,  474,  480
  486,  492,  498,  504,  510,  516,  522,  528,  534,  540,  546,  552,  558,  564,  570,  576
  582,  588,  594,  600,  606,  612,  618,  624,  630,  636,  642,  648,  654,  660,  666,  672
  678,  684,  690,  696,  702,  708,  714,  720,  726,  732,  738,  744,  750,  756,  762,  768
  774,  780,  786,  792,  798,  804,  810,  816,  822,  828,  834,  840,  846,  852,  858,  864
  865,  866,  867,  868,  869,  870,  871,  872,  873,  874,  875,  876,  937,  938,  939,  940
  941,  942,  943,  944,  945,  946,  947,  948, 1009, 1010, 1011, 1012, 1013, 1014, 1015, 1016
 1017, 1018, 1019, 1020, 1081, 1082, 1083, 1084, 1085, 1086, 1087, 1088, 1089, 1090, 1091, 1092
 1153, 1154, 1155, 1156, 1157, 1158, 1159, 1160, 1161, 1162, 1163, 1164, 1225, 1226, 1227, 1228
 1229, 1230, 1231, 1232, 1233, 1234, 1235, 1236, 1297, 1298, 1299, 1300, 1301, 1302, 1303, 1304
 1305, 1306, 1307, 1308, 1369, 1370, 1371, 1372, 1373, 1374, 1375, 1376, 1377, 1378, 1379, 1380
 1441, 1442, 1443, 1444, 1445, 1446, 1447, 1448, 1449, 1450, 1451, 1452, 1513, 1514, 1515, 1516
 1517, 1518, 1519, 1520, 1521, 1522, 1523, 1524, 1585, 1586, 1587, 1588, 1589, 1590, 1591, 1592
 1593, 1594, 1595, 1596, 1657, 1658, 1659, 1660, 1661, 1662, 1663, 1664, 1665, 1666, 1667, 1668
 2593, 2594, 2595, 2596, 2597, 2598, 2599, 2600, 2601, 2602, 2603, 2604, 2605, 2606, 2607, 2608
 2609, 2610, 2611, 2612, 2613, 2614, 2615, 2616, 2617, 2618, 2619, 2620, 2621, 2622, 2623, 2624
** ... 16 like lines cut
*Elset, elset=_Surf-1_S4, internal, instance=P170-1
 1731, 1734, 1737, 1740, 1743, 1746, 1749, 1752, 1755, 1758, 1761, 1764, 1767, 1770, 1773, 1776
 1779, 1782, 1785, 1788, 1791, 1794, 1797, 1800, 1803, 1806, 1809, 1812, 1815, 1818, 1821, 1824
 1827, 1830, 1833, 1836, 1839, 1842, 1845, 1848, 1851, 1854, 1857, 1860, 1863, 1866, 1869, 1872
 1875, 1878, 1881, 1884, 1887, 1890, 1893, 1896, 1899, 1902, 1905, 1908, 1911, 1914, 1917, 1920
 1923, 1926, 1929, 1932, 1935, 1938, 1941, 1944, 1947, 1950, 1953, 1956, 1959, 1962, 1965, 1968
 1971, 1974, 1977, 1980, 1983, 1986, 1989, 1992, 1995, 1998, 2001, 2004, 2007, 2010, 2013, 2016
 2019, 2022, 2025, 2028, 2031, 2034, 2037, 2040, 2043, 2046, 2049, 2052, 2055, 2058, 2061, 2064
 2067, 2070, 2073, 2076, 2079, 2082, 2085, 2088, 2091, 2094, 2097, 2100, 2103, 2106, 2109, 2112
 2115, 2118, 2121, 2124, 2127, 2130, 2133, 2136, 2139, 2142, 2145, 2148, 2151, 2154, 2157, 2160
 4443, 4446, 4449, 4452, 4455, 4458, 4461, 4464, 4467, 4470, 4473, 4476, 4479, 4482, 4485, 4488
 4491, 4494, 4497, 4500, 4503, 4506, 4509, 4512, 4907, 4910, 4913, 4916, 4919, 4922, 4925, 4928
 4931, 4934, 4937, 4940, 4943, 4946, 4949, 4952, 4955, 4958, 4961, 4964, 4967, 4970, 4973, 4976
*Elset, elset=_Surf-1_S3, internal, instance=P170-1
 2161, 2162, 2163, 2164, 2165, 2166, 2167, 2168, 2169, 2170, 2171, 2172, 2197, 2198, 2199, 2200
 2201, 2202, 2203, 2204, 2205, 2206, 2207, 2208, 2233, 2234, 2235, 2236, 2237, 2238, 2239, 2240
 2241, 2242, 2243, 2244, 2269, 2270, 2271, 2272, 2273, 2274, 2275, 2276, 2277, 2278, 2279, 2280
 2305, 2306, 2307, 2308, 2309, 2310, 2311, 2312, 2313, 2314, 2315, 2316, 2341, 2342, 2343, 2344
 2345, 2346, 2347, 2348, 2349, 2350, 2351, 2352, 2377, 2378, 2379, 2380, 2381, 2382, 2383, 2384
 2385, 2386, 2387, 2388, 2413, 2414, 2415, 2416, 2417, 2418, 2419, 2420, 2421, 2422, 2423, 2424
 2449, 2450, 2451, 2452, 2453, 2454, 2455, 2456, 2457, 2458, 2459, 2460, 2485, 2486, 2487, 2488
 2489, 2490, 2491, 2492, 2493, 2494, 2495, 2496, 2521, 2522, 2523, 2524, 2525, 2526, 2527, 2528
 2529, 2530, 2531, 2532, 2557, 2558, 2559, 2560, 2561, 2562, 2563, 2564, 2565, 2566, 2567, 2568
*Surface, type=ELEMENT, name=Surf-1
_Surf-1_S4, S4
_Surf-1_S3, S3
*End Assembly
** 
** MATERIALS
** 
*Material, name=Material-1
*Elastic
 31622.8, 0.2
** ----------------------------------------------------------------
** 
** STEP: Step-1
** 
*Step, name=Step-1, nlgeom=NO
*Static
0.1, 1., 1e-05, 1.
** 
** BOUNDARY CONDITIONS
** 
** Name: BC-1 Type: Symmetry/Antisymmetry/Encastre
*Boundary
Set-1, ZASYMM
** Name: BC-2 Type: Symmetry/Antisymmetry/Encastre
*Boundary
Set-2, ENCASTRE
** 
** LOADS
** 
** Name: Load-1   Type: Pressure
*Dsload
Surf-1, P, 0.8
** 
** OUTPUT REQUESTS
** 
*Restart, write, frequency=0
** 
** FIELD OUTPUT: F-Output-2
** 
*Output, field
*Node Output
U, 
*Element Output, directions=YES
E, S
** 
** FIELD OUTPUT: F-Output-1
** 
*Output, field, variable=PRESELECT
** 
** HISTORY OUTPUT: H-Output-1
** 
*Output, history, variable=PRESELECT
*End Step
