*Heading
** Job name: 180 Model name: 180
** Generated by: Abaqus/CAE 2018
*Preprint, echo=NO, model=NO, history=NO, contact=NO
**
** PARTS
**
*Part, name=P180
*End Part
**  
**
** ASSEMBLY
**
*Assembly, name=Assembly
**  
*Instance, name=P180-1, part=P180
*Node
      1,   268.467865,         77.5,          80.
      2,   268.467865,         77.5,           0.
      3,   268.467865,         155.,           0.
      4,   268.467865,         155.,          80.
      5,   187.927505,          31.,           0.
      6,   111.170006,   154.332474,           0.
      7,   135.457062,   155.293594,   76.2059631
      8,   178.624619,   25.6289673,   89.1545258
      9,   268.467865,        232.5,           0.
     10,   268.467865,        232.5,          80.
     11,   187.927505,         279.,           0.
     12,   178.617615,   284.375061,   88.9874649
     13,   268.467865,        232.5,         100.
     14,   268.467865,         155.,         100.
     15,   186.805222,   279.647949,         100.
     16,   186.805222,         155.,         100.
     17,   268.467865,         77.5,         100.
     18,   186.805222,   30.3520451,         100.
     19,   134.233932,           0.,           0.
     20,   60.4052734,       42.625,           0.
** ... 6788 like lines cut
*Element, type=C3D8R
   1,  125, 1023, 3285,  803,    1,   46,  663,   79
   2, 1023, 1024, 3286, 3285,   46,   47,  664,  663
   3, 1024, 1025, 3287, 3286,   47,   48,  665,  664
   4, 1025, 1026, 3288, 3287,   48,   49,  666,  665
   5, 1026, 1027, 3289, 3288,   49,   50,  667,  666
   6, 1027, 1028, 3290, 3289,   50,   51,  668,  667
   7, 1028, 1029, 3291, 3290,   51,   52,  669,  668
   8, 1029,  147,  913, 3291,   52,    2,   53,  669
   9,  803, 3285, 3292,  804,   79,  663,  670,   78
  10, 3285, 3286, 3293, 3292,  663,  664,  671,  670
  11, 3286, 3287, 3294, 3293,  664,  665,  672,  671
  12, 3287, 3288, 3295, 3294,  665,  666,  673,  672
  13, 3288, 3289, 3296, 3295,  666,  667,  674,  673
  14, 3289, 3290, 3297, 3296,  667,  668,  675,  674
  15, 3290, 3291, 3298, 3297,  668,  669,  676,  675
  16, 3291,  913,  914, 3298,  669,   53,   54,  676
  17,  804, 3292, 3299,  805,   78,  670,  677,   77
  18, 3292, 3293, 3300, 3299,  670,  671,  678,  677
  19, 3293, 3294, 3301, 3300,  671,  672,  679,  678
  20, 3294, 3295, 3302, 3301,  672,  673,  680,  679
** ... 5544 like lines cut
*Nset, nset=Set-1, generate
    1,  6808,     1
*Elset, elset=Set-1, generate
    1,  5564,     1
** Section: Section-1
*Solid Section, elset=Set-1, material=Material-1
,
*End Instance
**  
*Nset, nset=Set-1, instance=P180-1
    1,    2,    3,    4,    5,    8,    9,   10,   11,   12,   13,   14,   15,   17,   18,   19
   20,   21,   22,   23,   24,   25,   26,   27,   28,   29,   30,   31,   32,   33,   34,   35
   37,   39,   40,   41,   42,   43,   44,   45,   46,   47,   48,   49,   50,   51,   52,   53
   54,   55,   56,   57,   58,   59,   60,   61,   62,   63,   64,   65,   66,   67,   68,   69
   70,   71,   72,   73,   74,   75,   76,   77,   78,   79,   80,   81,   82,   83,   84,   85
   86,  125,  126,  127,  128,  129,  130,  131,  132,  133,  134,  135,  147,  148,  149,  150
  151,  152,  153,  154,  155,  156,  157,  158,  159,  160,  161,  162,  163,  164,  165,  166
  167,  168,  169,  170,  171,  172,  173,  174,  175,  176,  177,  178,  179,  180,  181,  182
  183,  184,  195,  196,  197,  198,  199,  200,  201,  212,  213,  214,  215,  216,  217,  218
  219,  220,  221,  222,  223,  224,  225,  226,  227,  228,  229,  230,  231,  232,  233,  234
  235,  236,  237,  238,  239,  240,  241,  242,  243,  244,  245,  246,  269,  270,  271,  272
  273,  274,  275,  276,  277,  278,  279,  280,  281,  282,  283,  284,  285,  286,  287,  288
  289,  290,  301,  302,  303,  304,  305,  306,  307,  308,  309,  310,  311,  312,  313,  314
  315,  316,  317,  318,  319,  320,  321,  322,  323,  324,  325,  326,  327,  328,  329,  337
  338,  339,  340,  341,  342,  343,  344,  345,  346,  347,  348,  349,  350,  351,  352,  353
  361,  362,  363,  364,  365,  366,  367,  368,  369,  370,  371,  372,  373,  374,  375,  376
  377,  378,  379,  380,  381,  382,  383,  384,  385,  386,  387,  388,  389,  398,  399,  400
  401,  402,  403,  404,  405,  406,  407,  408,  409,  410,  411,  412,  421,  422,  423,  424
  425,  426,  427,  428,  429,  430,  431,  432,  433,  434,  435,  436,  437,  438,  439,  440
  441,  442,  443,  444,  445,  446,  447,  448,  449,  457,  458,  459,  460,  461,  462,  463
** ... 58 like lines cut
*Elset, elset=Set-1, instance=P180-1
    1,    2,    3,    4,    5,    6,    7,    8,    9,   10,   11,   12,   13,   14,   15,   16
   17,   18,   19,   20,   21,   22,   23,   24,   25,   26,   27,   28,   29,   30,   31,   32
   33,   34,   35,   36,   37,   38,   39,   40,   41,   42,   43,   44,   45,   46,   47,   48
   49,   50,   51,   52,   53,   54,   55,   56,   57,   58,   59,   60,   61,   62,   63,   64
   65,   66,   67,   68,   69,   70,   71,   72,   73,   74,   75,   76,   77,   78,   79,   80
   81,   82,   83,   84,   85,   86,   87,   88,   89,   90,   91,   92,   93,   94,   95,   96
  177,  178,  179,  180,  181,  182,  183,  184,  265,  266,  267,  268,  269,  270,  271,  272
  353,  354,  355,  356,  357,  358,  359,  360,  441,  442,  443,  444,  445,  446,  447,  448
  529,  530,  531,  532,  533,  534,  535,  536,  617,  618,  619,  620,  621,  622,  623,  624
  705,  706,  707,  708,  709,  710,  711,  712,  793,  794,  795,  796,  797,  798,  799,  800
  881,  882,  883,  884,  885,  886,  887,  888,  969,  970,  971,  972,  973,  974,  975,  976
 1057, 1058, 1059, 1060, 1061, 1062, 1063, 1064, 1065, 1066, 1067, 1068, 1069, 1070, 1071, 1072
 1073, 1074, 1075, 1076, 1077, 1078, 1079, 1080, 1081, 1082, 1083, 1084, 1085, 1086, 1087, 1088
 1089, 1090, 1091, 1092, 1093, 1094, 1095, 1096, 1097, 1098, 1099, 1100, 1101, 1102, 1103, 1104
 1105, 1106, 1107, 1108, 1109, 1110, 1111, 1112, 1113, 1114, 1115, 1116, 1117, 1118, 1119, 1120
 1121, 1122, 1123, 1124, 1125, 1126, 1127, 1128, 1129, 1130, 1131, 1132, 1133, 1134, 1135, 1136
 1137, 1138, 1139, 1140, 1141, 1142, 1143, 1144, 1155, 1166, 1177, 1188, 1199, 1210, 1221, 1232
 1243, 1254, 1265, 1276, 1287, 1298, 1309, 1320, 1331, 1342, 1353, 1364, 1375, 1386, 1397, 1408
 1419, 1430, 1441, 1452, 1463, 1474, 1485, 1496, 1507, 1518, 1529, 1540, 1551, 1562, 1573, 1584
 1595, 1606, 1617, 1628, 1639, 1650, 1661, 1672, 1683, 1694, 1705, 1716, 1727, 1738, 1749, 1760
** ... 46 like lines cut
*Nset, nset=Set-2, instance=P180-1
    2,    3,    5,    6,    9,   11,   19,   20,   23,   24,   27,   28,   31,   53,   54,   55
   56,   57,   58,   59,   60,   61,   62,   87,   88,   89,   90,   91,   92,   93,   94,   95
   96,  136,  137,  138,  139,  140,  141,  142,  143,  144,  145,  146,  147,  148,  149,  150
  151,  152,  153,  154,  155,  156,  157,  158,  159,  160,  161,  162,  163,  164,  165,  166
  167,  185,  186,  187,  188,  189,  190,  191,  192,  193,  194,  223,  224,  225,  226,  227
  228,  229,  230,  231,  232,  233,  313,  314,  315,  316,  317,  318,  319,  320,  321,  322
  323,  324,  325,  326,  327,  328,  329,  330,  331,  332,  333,  334,  335,  336,  375,  376
  377,  378,  379,  380,  381,  382,  383,  384,  385,  386,  387,  388,  389,  390,  391,  392
  393,  394,  395,  396,  397,  435,  436,  437,  438,  439,  440,  441,  442,  443,  444,  445
  446,  447,  448,  449,  450,  451,  452,  453,  454,  455,  456,  493,  494,  495,  496,  497
  498,  499,  500,  501,  502,  503,  504,  505,  506,  507,  508,  509,  913,  914,  915,  916
  917,  918,  919,  920,  921,  922,  923,  924,  925,  926,  927,  928,  929,  930,  931,  932
  933,  934,  935,  936,  937,  938,  939,  940,  941,  942,  943,  944,  945,  946,  947,  948
  949,  950,  951,  952,  953,  954,  955,  956,  957,  958,  959,  960,  961,  962,  963,  964
  965,  966,  967,  968,  969,  970,  971,  972,  973,  974,  975,  976,  977,  978,  979,  980
  981,  982,  983,  984,  985,  986,  987,  988,  989,  990,  991,  992,  993,  994,  995,  996
  997,  998,  999, 1000, 1001, 1002, 1003, 1004, 1005, 1006, 1007, 1008, 1009, 1010, 1011, 1012
 1013, 1014, 1015, 1016, 1017, 1018, 1019, 1020, 1021, 1022, 1394, 1395, 1396, 1397, 1398, 1399
 1400, 1401, 1402, 1403, 1404, 1405, 1406, 1407, 1408, 1409, 1410, 1411, 1412, 1413, 1414, 1415
 1416, 1417, 1418, 1419, 1420, 1421, 1422, 1423, 1424, 1425, 1426, 1427, 1428, 1429, 1430, 1431
** ... 21 like lines cut
*Elset, elset=Set-2, instance=P180-1
    8,   16,   24,   32,   40,   48,   56,   64,   72,   80,   88,   96,  104,  112,  120,  128
  136,  144,  152,  160,  168,  176,  184,  192,  200,  208,  216,  224,  232,  240,  248,  256
  264,  272,  280,  288,  296,  304,  312,  320,  328,  336,  344,  352,  360,  368,  376,  384
  392,  400,  408,  416,  424,  432,  440,  448,  456,  464,  472,  480,  488,  496,  504,  512
  520,  528,  536,  544,  552,  560,  568,  576,  584,  592,  600,  608,  616,  624,  632,  640
  648,  656,  664,  672,  680,  688,  696,  704,  712,  720,  728,  736,  744,  752,  760,  768
  776,  784,  792,  800,  808,  816,  824,  832,  840,  848,  856,  864,  872,  880,  888,  896
  904,  912,  920,  928,  936,  944,  952,  960,  968,  976,  984,  992, 1000, 1008, 1016, 1024
 1032, 1040, 1048, 1056, 1057, 1058, 1059, 1060, 1061, 1062, 1063, 1064, 1065, 1066, 1067, 1145
 1146, 1147, 1148, 1149, 1150, 1151, 1152, 1153, 1154, 1155, 1233, 1234, 1235, 1236, 1237, 1238
 1239, 1240, 1241, 1242, 1243, 1321, 1322, 1323, 1324, 1325, 1326, 1327, 1328, 1329, 1330, 1331
 1409, 1410, 1411, 1412, 1413, 1414, 1415, 1416, 1417, 1418, 1419, 1497, 1498, 1499, 1500, 1501
 1502, 1503, 1504, 1505, 1506, 1507, 1585, 1586, 1587, 1588, 1589, 1590, 1591, 1592, 1593, 1594
 1595, 1673, 1674, 1675, 1676, 1677, 1678, 1679, 1680, 1681, 1682, 1683, 1761, 1762, 1763, 1764
 1765, 1766, 1767, 1768, 1769, 1770, 1771, 1849, 1850, 1851, 1852, 1853, 1854, 1855, 1856, 1857
 1858, 1859, 1937, 1938, 1939, 1940, 1941, 1942, 1943, 1944, 1945, 1946, 1947, 2025, 2026, 2027
 2028, 2029, 2030, 2031, 2032, 2033, 2034, 2035, 2641, 2642, 2643, 2644, 2645, 2646, 2647, 2648
 2649, 2650, 2651, 2652, 2653, 2654, 2655, 2656, 2657, 2658, 2659, 2660, 2661, 2662, 2663, 2664
 2665, 2666, 2667, 2668, 2669, 2670, 2671, 2672, 2673, 2674, 2675, 2676, 2677, 2678, 2679, 2680
 2681, 2682, 2683, 2684, 2685, 2686, 2687, 2688, 2689, 2690, 2691, 2692, 2693, 2694, 2695, 2696
** ... 17 like lines cut
*Elset, elset=_Surf-1_S4, internal, instance=P180-1
 2114, 2116, 2118, 2120, 2122, 2124, 2126, 2128, 2130, 2132, 2134, 2136, 2138, 2140, 2142, 2144
 2146, 2148, 2150, 2152, 2154, 2156, 2158, 2160, 2162, 2164, 2166, 2168, 2170, 2172, 2174, 2176
 2178, 2180, 2182, 2184, 2186, 2188, 2190, 2192, 2194, 2196, 2198, 2200, 2202, 2204, 2206, 2208
 2210, 2212, 2214, 2216, 2218, 2220, 2222, 2224, 2226, 2228, 2230, 2232, 2234, 2236, 2238, 2240
 2242, 2244, 2246, 2248, 2250, 2252, 2254, 2256, 2258, 2260, 2262, 2264, 2266, 2268, 2270, 2272
 2274, 2276, 2278, 2280, 2282, 2284, 2286, 2288, 2290, 2292, 2294, 2296, 2298, 2300, 2302, 2304
 2306, 2308, 2310, 2312, 2314, 2316, 2318, 2320, 2322, 2324, 2326, 2328, 2330, 2332, 2334, 2336
 2338, 2340, 2342, 2344, 2346, 2348, 2350, 2352, 2354, 2356, 2358, 2360, 2362, 2364, 2366, 2368
 2370, 2372, 2374, 2376, 5290, 5292, 5294, 5296, 5298, 5300, 5302, 5304, 5306, 5308, 5310, 5544
 5546, 5548, 5550, 5552, 5554, 5556, 5558, 5560, 5562, 5564
*Elset, elset=_Surf-1_S3, internal, instance=P180-1
 2377, 2378, 2379, 2380, 2381, 2382, 2383, 2384, 2385, 2386, 2387, 2399, 2400, 2401, 2402, 2403
 2404, 2405, 2406, 2407, 2408, 2409, 2421, 2422, 2423, 2424, 2425, 2426, 2427, 2428, 2429, 2430
 2431, 2443, 2444, 2445, 2446, 2447, 2448, 2449, 2450, 2451, 2452, 2453, 2465, 2466, 2467, 2468
 2469, 2470, 2471, 2472, 2473, 2474, 2475, 2487, 2488, 2489, 2490, 2491, 2492, 2493, 2494, 2495
 2496, 2497, 2509, 2510, 2511, 2512, 2513, 2514, 2515, 2516, 2517, 2518, 2519, 2531, 2532, 2533
 2534, 2535, 2536, 2537, 2538, 2539, 2540, 2541, 2553, 2554, 2555, 2556, 2557, 2558, 2559, 2560
 2561, 2562, 2563, 2575, 2576, 2577, 2578, 2579, 2580, 2581, 2582, 2583, 2584, 2585, 2597, 2598
 2599, 2600, 2601, 2602, 2603, 2604, 2605, 2606, 2607, 2619, 2620, 2621, 2622, 2623, 2624, 2625
 2626, 2627, 2628, 2629
*Surface, type=ELEMENT, name=Surf-1
_Surf-1_S4, S4
_Surf-1_S3, S3
*End Assembly
** 
** MATERIALS
** 
*Material, name=Material-1
*Elastic
 31622.8, 0.2
** ----------------------------------------------------------------
** 
** STEP: Step-1
** 
*Step, name=Step-1, nlgeom=NO
*Static
0.1, 1., 1e-05, 1.
** 
** BOUNDARY CONDITIONS
** 
** Name: BC-1 Type: Symmetry/Antisymmetry/Encastre
*Boundary
Set-1, ZASYMM
** Name: BC-2 Type: Symmetry/Antisymmetry/Encastre
*Boundary
Set-2, ENCASTRE
** 
** LOADS
** 
** Name: Load-1   Type: Pressure
*Dsload
Surf-1, P, 0.8
** 
** OUTPUT REQUESTS
** 
*Restart, write, frequency=0
** 
** FIELD OUTPUT: F-Output-2
** 
*Output, field
*Node Output
U, 
*Element Output, directions=YES
E, S
** 
** FIELD OUTPUT: F-Output-1
** 
*Output, field, variable=PRESELECT
** 
** HISTORY OUTPUT: H-Output-1
** 
*Output, history, variable=PRESELECT
*End Step
