*Heading
** Job name: 18deg Model name: 18deg
** Generated by: Abaqus/CAE 2018
*Preprint, echo=NO, model=NO, history=NO, contact=NO
**
** PARTS
**
*Part, name=deg18
*End Part
**  
**
** ASSEMBLY
**
*Assembly, name=Assembly
**  
*Instance, name=deg18-1, part=deg18
*Node
      1,         120.,         240.,           0.
      2,         120.,           0.,           0.
      3,           0.,           0.,           0.
      4,           0.,         240.,           0.
      5,         120.,           0.,          80.
      6,           0.,           0.,   41.0099983
      7,           0.,         240.,   41.0099983
      8,         120.,         240.,          80.
      9,         240.,           0.,           0.
     10,         240.,         240.,           0.
     11,         240.,         240.,          80.
     12,         240.,           0.,          80.
     13,         120.,         235.,           0.
     14,         120.,         230.,           0.
     15,         120.,         225.,           0.
     16,         120.,         220.,           0.
     17,         120.,         215.,           0.
     18,         120.,         210.,           0.
     19,         120.,         205.,           0.
     20,         120.,         200.,           0.
** ... 34280 like lines cut
*Element, type=C3D8R
    1,   320,  3387,  7793,  2811,     1,    13,   555,   154
    2,  3387,  3388,  7794,  7793,    13,    14,   556,   555
    3,  3388,  3389,  7795,  7794,    14,    15,   557,   556
    4,  3389,  3390,  7796,  7795,    15,    16,   558,   557
    5,  3390,  3391,  7797,  7796,    16,    17,   559,   558
    6,  3391,  3392,  7798,  7797,    17,    18,   560,   559
    7,  3392,  3393,  7799,  7798,    18,    19,   561,   560
    8,  3393,  3394,  7800,  7799,    19,    20,   562,   561
    9,  3394,  3395,  7801,  7800,    20,    21,   563,   562
   10,  3395,  3396,  7802,  7801,    21,    22,   564,   563
   11,  3396,  3397,  7803,  7802,    22,    23,   565,   564
   12,  3397,  3398,  7804,  7803,    23,    24,   566,   565
   13,  3398,  3399,  7805,  7804,    24,    25,   567,   566
   14,  3399,  3400,  7806,  7805,    25,    26,   568,   567
   15,  3400,  3401,  7807,  7806,    26,    27,   569,   568
   16,  3401,  3402,  7808,  7807,    27,    28,   570,   569
   17,  3402,  3403,  7809,  7808,    28,    29,   571,   570
   18,  3403,  3404,  7810,  7809,    29,    30,   572,   571
   19,  3404,  3405,  7811,  7810,    30,    31,   573,   572
   20,  3405,  3406,  7812,  7811,    31,    32,   574,   573
** ... 30556 like lines cut
*Nset, nset=Set-1, generate
     1,  34300,      1
*Elset, elset=Set-1, generate
     1,  30576,      1
** Section: Section-1
*Solid Section, elset=Set-1, material=Material-1
,
*End Instance
**  
*Nset, nset=Set-1, instance=deg18-1
    1,    2,    3,    4,    5,    6,    7,    8,    9,   10,   11,   12,   60,   61,   62,   63
   64,   65,   66,   67,   68,   69,   70,   71,   72,   73,   74,   75,   76,   77,   78,   79
   80,   81,   82,   83,   84,   85,   86,   87,   88,   89,   90,   91,   92,   93,   94,   95
   96,   97,   98,   99,  100,  101,  102,  103,  104,  105,  106,  107,  108,  109,  110,  111
  112,  113,  114,  115,  116,  117,  118,  119,  120,  121,  122,  123,  124,  125,  126,  127
  128,  129,  130,  131,  132,  133,  134,  135,  136,  137,  138,  139,  140,  141,  142,  143
  144,  145,  146,  147,  148,  149,  150,  151,  152,  153,  154,  202,  203,  204,  205,  206
  207,  208,  209,  210,  211,  212,  213,  214,  215,  216,  217,  218,  219,  220,  221,  222
  223,  224,  225,  226,  227,  228,  229,  230,  231,  232,  233,  234,  235,  236,  237,  238
  239,  240,  241,  242,  243,  244,  245,  246,  247,  248,  249,  250,  251,  252,  253,  254
  255,  256,  257,  258,  259,  260,  261,  262,  263,  264,  265,  266,  267,  268,  269,  270
  271,  272,  273,  274,  275,  276,  277,  278,  279,  280,  281,  282,  283,  284,  285,  286
  287,  288,  289,  290,  291,  292,  293,  294,  295,  296,  297,  298,  299,  300,  301,  302
  303,  304,  305,  306,  307,  308,  309,  310,  311,  312,  313,  314,  315,  316,  317,  318
  319,  320,  321,  322,  323,  324,  325,  326,  327,  328,  329,  330,  331,  332,  333,  334
  335,  336,  337,  338,  339,  340,  341,  342,  343,  344,  345,  346,  347,  348,  349,  350
  351,  352,  353,  354,  355,  356,  357,  358,  359,  360,  361,  362,  363,  364,  365,  366
  367,  368,  369,  370,  371,  372,  373,  374,  375,  376,  377,  378,  379,  380,  381,  382
  383,  384,  385,  386,  387,  388,  389,  390,  391,  392,  393,  394,  395,  396,  397,  398
  399,  400,  401,  402,  403,  404,  405,  406,  407,  408,  409,  410,  411,  412,  413,  414
** ... 150 like lines cut
*Elset, elset=Set-1, instance=deg18-1
     1,    48,    49,    96,    97,   144,   145,   192,   193,   240,   241,   288,   289,   336,   337,   384
   385,   432,   433,   480,   481,   528,   529,   576,   577,   624,   625,   672,   673,   720,   721,   768
   769,   816,   817,   864,   865,   912,   913,   960,   961,  1008,  1009,  1056,  1057,  1104,  1105,  1152
  1153,  1154,  1155,  1156,  1157,  1158,  1159,  1160,  1161,  1162,  1163,  1164,  1165,  1166,  1167,  1168
  1169,  1170,  1171,  1172,  1173,  1174,  1175,  1176,  1177,  1178,  1179,  1180,  1181,  1182,  1183,  1184
  1185,  1186,  1187,  1188,  1189,  1190,  1191,  1192,  1193,  1194,  1195,  1196,  1197,  1198,  1199,  1200
  1201,  1248,  1249,  1296,  1297,  1344,  1345,  1392,  1393,  1440,  1441,  1488,  1489,  1536,  1537,  1584
  1585,  1632,  1633,  1680,  1681,  1728,  1729,  1776,  1777,  1824,  1825,  1872,  1873,  1920,  1921,  1968
  1969,  2016,  2017,  2064,  2065,  2112,  2113,  2160,  2161,  2208,  2209,  2256,  2257,  2304,  2305,  2352
  2353,  2354,  2355,  2356,  2357,  2358,  2359,  2360,  2361,  2362,  2363,  2364,  2365,  2366,  2367,  2368
  2369,  2370,  2371,  2372,  2373,  2374,  2375,  2376,  2377,  2378,  2379,  2380,  2381,  2382,  2383,  2384
  2385,  2386,  2387,  2388,  2389,  2390,  2391,  2392,  2393,  2394,  2395,  2396,  2397,  2398,  2399,  2400
  2401,  2448,  2449,  2496,  2497,  2544,  2545,  2592,  2593,  2640,  2641,  2688,  2689,  2736,  2737,  2784
  2785,  2832,  2833,  2880,  2881,  2928,  2929,  2976,  2977,  3024,  3025,  3072,  3073,  3120,  3121,  3168
  3169,  3216,  3217,  3264,  3265,  3312,  3313,  3360,  3361,  3408,  3409,  3456,  3457,  3504,  3505,  3552
  3553,  3554,  3555,  3556,  3557,  3558,  3559,  3560,  3561,  3562,  3563,  3564,  3565,  3566,  3567,  3568
  3569,  3570,  3571,  3572,  3573,  3574,  3575,  3576,  3577,  3578,  3579,  3580,  3581,  3582,  3583,  3584
  3585,  3586,  3587,  3588,  3589,  3590,  3591,  3592,  3593,  3594,  3595,  3596,  3597,  3598,  3599,  3600
  3601,  3648,  3649,  3696,  3697,  3744,  3745,  3792,  3793,  3840,  3841,  3888,  3889,  3936,  3937,  3984
  3985,  4032,  4033,  4080,  4081,  4128,  4129,  4176,  4177,  4224,  4225,  4272,  4273,  4320,  4321,  4368
** ... 135 like lines cut
*Nset, nset=Set-2, instance=deg18-1
    1,    2,    3,    4,    9,   10,   13,   14,   15,   16,   17,   18,   19,   20,   21,   22
   23,   24,   25,   26,   27,   28,   29,   30,   31,   32,   33,   34,   35,   36,   37,   38
   39,   40,   41,   42,   43,   44,   45,   46,   47,   48,   49,   50,   51,   52,   53,   54
   55,   56,   57,   58,   59,   60,   61,   62,   63,   64,   65,   66,   67,   68,   69,   70
   71,   72,   73,   74,   75,   76,   77,   78,   79,   80,   81,   82,   83,   84,   85,   86
   87,   88,   89,   90,   91,   92,   93,   94,   95,   96,   97,   98,   99,  100,  101,  102
  103,  104,  105,  106,  107,  108,  109,  110,  111,  112,  113,  114,  115,  116,  117,  118
  119,  120,  121,  122,  123,  124,  125,  126,  127,  128,  129,  130,  131,  132,  133,  134
  135,  136,  137,  138,  139,  140,  141,  142,  143,  144,  145,  146,  147,  148,  149,  150
  151,  152,  153,  154,  345,  346,  347,  348,  349,  350,  351,  352,  353,  354,  355,  356
  357,  358,  359,  360,  361,  362,  363,  364,  365,  366,  367,  368,  369,  370,  371,  372
  373,  374,  375,  376,  377,  378,  379,  380,  381,  382,  383,  384,  385,  386,  387,  388
  389,  390,  391,  486,  487,  488,  489,  490,  491,  492,  493,  494,  495,  496,  497,  498
  499,  500,  501,  502,  503,  504,  505,  506,  507,  508,  532,  533,  534,  535,  536,  537
  538,  539,  540,  541,  542,  543,  544,  545,  546,  547,  548,  549,  550,  551,  552,  553
  554,  555,  556,  557,  558,  559,  560,  561,  562,  563,  564,  565,  566,  567,  568,  569
  570,  571,  572,  573,  574,  575,  576,  577,  578,  579,  580,  581,  582,  583,  584,  585
  586,  587,  588,  589,  590,  591,  592,  593,  594,  595,  596,  597,  598,  599,  600,  601
  602,  603,  604,  605,  606,  607,  608,  609,  610,  611,  612,  613,  614,  615,  616,  617
  618,  619,  620,  621,  622,  623,  624,  625,  626,  627,  628,  629,  630,  631,  632,  633
** ... 134 like lines cut
*Elset, elset=Set-2, instance=deg18-1
     1,     2,     3,     4,     5,     6,     7,     8,     9,    10,    11,    12,    13,    14,    15,    16
    17,    18,    19,    20,    21,    22,    23,    24,    25,    26,    27,    28,    29,    30,    31,    32
    33,    34,    35,    36,    37,    38,    39,    40,    41,    42,    43,    44,    45,    46,    47,    48
    49,    50,    51,    52,    53,    54,    55,    56,    57,    58,    59,    60,    61,    62,    63,    64
    65,    66,    67,    68,    69,    70,    71,    72,    73,    74,    75,    76,    77,    78,    79,    80
    81,    82,    83,    84,    85,    86,    87,    88,    89,    90,    91,    92,    93,    94,    95,    96
    97,    98,    99,   100,   101,   102,   103,   104,   105,   106,   107,   108,   109,   110,   111,   112
   113,   114,   115,   116,   117,   118,   119,   120,   121,   122,   123,   124,   125,   126,   127,   128
   129,   130,   131,   132,   133,   134,   135,   136,   137,   138,   139,   140,   141,   142,   143,   144
   145,   146,   147,   148,   149,   150,   151,   152,   153,   154,   155,   156,   157,   158,   159,   160
   161,   162,   163,   164,   165,   166,   167,   168,   169,   170,   171,   172,   173,   174,   175,   176
   177,   178,   179,   180,   181,   182,   183,   184,   185,   186,   187,   188,   189,   190,   191,   192
   193,   194,   195,   196,   197,   198,   199,   200,   201,   202,   203,   204,   205,   206,   207,   208
   209,   210,   211,   212,   213,   214,   215,   216,   217,   218,   219,   220,   221,   222,   223,   224
   225,   226,   227,   228,   229,   230,   231,   232,   233,   234,   235,   236,   237,   238,   239,   240
   241,   242,   243,   244,   245,   246,   247,   248,   249,   250,   251,   252,   253,   254,   255,   256
   257,   258,   259,   260,   261,   262,   263,   264,   265,   266,   267,   268,   269,   270,   271,   272
   273,   274,   275,   276,   277,   278,   279,   280,   281,   282,   283,   284,   285,   286,   287,   288
   289,   290,   291,   292,   293,   294,   295,   296,   297,   298,   299,   300,   301,   302,   303,   304
   305,   306,   307,   308,   309,   310,   311,   312,   313,   314,   315,   316,   317,   318,   319,   320
** ... 127 like lines cut
*Elset, elset=_Surf-1_S5, internal, instance=deg18-1
 16177, 16178, 16179, 16180, 16181, 16182, 16183, 16184, 16185, 16186, 16187, 16188, 16189, 16190, 16191, 16192
 16193, 16194, 16195, 16196, 16197, 16198, 16199, 16200, 16201, 16202, 16203, 16204, 16205, 16206, 16207, 16208
 16209, 16210, 16211, 16212, 16213, 16214, 16215, 16216, 16217, 16218, 16219, 16220, 16221, 16222, 16223, 16224
 16801, 16802, 16803, 16804, 16805, 16806, 16807, 16808, 16809, 16810, 16811, 16812, 16813, 16814, 16815, 16816
 16817, 16818, 16819, 16820, 16821, 16822, 16823, 16824, 16825, 16826, 16827, 16828, 16829, 16830, 16831, 16832
 16833, 16834, 16835, 16836, 16837, 16838, 16839, 16840, 16841, 16842, 16843, 16844, 16845, 16846, 16847, 16848
 17425, 17426, 17427, 17428, 17429, 17430, 17431, 17432, 17433, 17434, 17435, 17436, 17437, 17438, 17439, 17440
 17441, 17442, 17443, 17444, 17445, 17446, 17447, 17448, 17449, 17450, 17451, 17452, 17453, 17454, 17455, 17456
 17457, 17458, 17459, 17460, 17461, 17462, 17463, 17464, 17465, 17466, 17467, 17468, 17469, 17470, 17471, 17472
 18049, 18050, 18051, 18052, 18053, 18054, 18055, 18056, 18057, 18058, 18059, 18060, 18061, 18062, 18063, 18064
 18065, 18066, 18067, 18068, 18069, 18070, 18071, 18072, 18073, 18074, 18075, 18076, 18077, 18078, 18079, 18080
 18081, 18082, 18083, 18084, 18085, 18086, 18087, 18088, 18089, 18090, 18091, 18092, 18093, 18094, 18095, 18096
 18673, 18674, 18675, 18676, 18677, 18678, 18679, 18680, 18681, 18682, 18683, 18684, 18685, 18686, 18687, 18688
 18689, 18690, 18691, 18692, 18693, 18694, 18695, 18696, 18697, 18698, 18699, 18700, 18701, 18702, 18703, 18704
 18705, 18706, 18707, 18708, 18709, 18710, 18711, 18712, 18713, 18714, 18715, 18716, 18717, 18718, 18719, 18720
 19297, 19298, 19299, 19300, 19301, 19302, 19303, 19304, 19305, 19306, 19307, 19308, 19309, 19310, 19311, 19312
 19313, 19314, 19315, 19316, 19317, 19318, 19319, 19320, 19321, 19322, 19323, 19324, 19325, 19326, 19327, 19328
 19329, 19330, 19331, 19332, 19333, 19334, 19335, 19336, 19337, 19338, 19339, 19340, 19341, 19342, 19343, 19344
 19921, 19922, 19923, 19924, 19925, 19926, 19927, 19928, 19929, 19930, 19931, 19932, 19933, 19934, 19935, 19936
 19937, 19938, 19939, 19940, 19941, 19942, 19943, 19944, 19945, 19946, 19947, 19948, 19949, 19950, 19951, 19952
** ... 52 like lines cut
*Surface, type=ELEMENT, name=Surf-1
_Surf-1_S5, S5
*End Assembly
*Amplitude, name=Amp-1
            0.1,           514.8,             0.2,          1029.6,             0.3,          1544.4,             0.4,          2059.2
            0.5,           2574.,             0.6,          3088.8,             0.7,          3603.6,             0.8,          4118.4
            0.9,          4633.2,              1.,           5148.
** 
** MATERIALS
** 
*Material, name=Material-1
*Elastic
 31622.8, 0.2
** ----------------------------------------------------------------
** 
** STEP: Step-1
** 
*Step, name=Step-1, nlgeom=NO
*Static
0.1, 1., 1e-05, 1.
** 
** BOUNDARY CONDITIONS
** 
** Name: BC-1 Type: Symmetry/Antisymmetry/Encastre
*Boundary
Set-1, ZASYMM
** Name: BC-2 Type: Symmetry/Antisymmetry/Encastre
*Boundary
Set-2, ENCASTRE
** 
** LOADS
** 
** Name: Load-1   Type: Pressure
*Dsload
Surf-1, P, 1.
** 
** OUTPUT REQUESTS
** 
*Restart, write, frequency=0
** 
** FIELD OUTPUT: F-Output-2
** 
*Output, field
*Node Output
U, 
*Element Output, directions=YES
E, S
** 
** FIELD OUTPUT: F-Output-1
** 
*Output, field, variable=PRESELECT
** 
** HISTORY OUTPUT: H-Output-1
** 
*Output, history, variable=PRESELECT
*End Step
