*Heading
** Job name: 20deg Model name: 20deg
** Generated by: Abaqus/CAE 2018
*Preprint, echo=NO, model=NO, history=NO, contact=NO
**
** PARTS
**
*Part, name=deg20
*End Part
**  
**
** ASSEMBLY
**
*Assembly, name=Assembly
**  
*Instance, name=deg20-1, part=deg20
*Node
      1,         240.,           0.,   45.7142868
      2,         240.,           0.,           0.
      3,         240.,         120.,           0.
      4,         240.,         120.,   45.7142868
      5,   109.565216,           0.,           0.
      6,   109.565216,         120.,           0.
      7,    99.234787,         120.,   64.5247955
      8,   99.6854095,           0.,   63.8211555
      9,         240.,         240.,           0.
     10,         240.,         240.,   45.7142868
     11,   109.565216,         240.,           0.
     12,   99.6464844,         240.,   63.6654549
     13,         240.,         240.,          80.
     14,         240.,         120.,          80.
     15,   124.615387,         240.,          80.
     16,   124.615387,         120.,          80.
     17,         240.,           0.,          80.
     18,   124.615387,           0.,          80.
     19,           0.,           0.,           0.
     20,           0.,         120.,           0.
** ... 29723 like lines cut
*Element, type=C3D8R
    1,   178,  2470, 10056,  1366,     1,    34,  1044,    93
    2,  2470,  2471, 10057, 10056,    34,    35,  1045,  1044
    3,  2471,  2472, 10058, 10057,    35,    36,  1046,  1045
    4,  2472,  2473, 10059, 10058,    36,    37,  1047,  1046
    5,  2473,  2474, 10060, 10059,    37,    38,  1048,  1047
    6,  2474,  2475, 10061, 10060,    38,    39,  1049,  1048
    7,  2475,  2476, 10062, 10061,    39,    40,  1050,  1049
    8,  2476,   226,  1918, 10062,    40,     2,    41,  1050
    9,  1366, 10056, 10063,  1367,    93,  1044,  1051,    92
   10, 10056, 10057, 10064, 10063,  1044,  1045,  1052,  1051
   11, 10057, 10058, 10065, 10064,  1045,  1046,  1053,  1052
   12, 10058, 10059, 10066, 10065,  1046,  1047,  1054,  1053
   13, 10059, 10060, 10067, 10066,  1047,  1048,  1055,  1054
   14, 10060, 10061, 10068, 10067,  1048,  1049,  1056,  1055
   15, 10061, 10062, 10069, 10068,  1049,  1050,  1057,  1056
   16, 10062,  1918,  1919, 10069,  1050,    41,    42,  1057
   17,  1367, 10063, 10070,  1368,    92,  1051,  1058,    91
   18, 10063, 10064, 10071, 10070,  1051,  1052,  1059,  1058
   19, 10064, 10065, 10072, 10071,  1052,  1053,  1060,  1059
   20, 10065, 10066, 10073, 10072,  1053,  1054,  1061,  1060
** ... 26140 like lines cut
*Nset, nset=Set-1, generate
     1,  29743,      1
*Elset, elset=Set-1, generate
     1,  26160,      1
** Section: Section-1
*Solid Section, elset=Set-1, material=Material-1
,
*End Instance
**  
*Nset, nset=Set-1, instance=deg20-1
    1,    2,    3,    4,    5,    8,    9,   10,   11,   12,   13,   14,   15,   17,   18,   19
   20,   21,   22,   23,   24,   25,   26,   29,   30,   31,   32,   33,   34,   35,   36,   37
   38,   39,   40,   41,   42,   43,   44,   45,   46,   47,   48,   49,   50,   51,   52,   53
   54,   55,   56,   57,   58,   59,   60,   61,   62,   63,   64,   65,   66,   67,   68,   69
   70,   71,   72,   73,   74,   75,   76,   77,   78,   79,   80,   81,   82,   83,   84,   85
   86,   87,   88,   89,   90,   91,   92,   93,   94,   95,   96,   97,   98,   99,  100,  178
  179,  180,  181,  182,  183,  184,  185,  186,  187,  188,  189,  190,  191,  192,  193,  194
  195,  196,  197,  198,  199,  200,  201,  226,  227,  228,  229,  230,  231,  232,  233,  234
  235,  236,  237,  238,  239,  240,  241,  242,  243,  244,  245,  246,  247,  248,  249,  250
  251,  252,  253,  254,  255,  256,  257,  258,  259,  260,  261,  262,  263,  264,  265,  266
  267,  268,  269,  270,  271,  272,  273,  274,  275,  276,  277,  278,  279,  280,  281,  282
  283,  284,  285,  286,  287,  288,  289,  290,  291,  292,  293,  294,  295,  296,  297,  298
  299,  300,  301,  302,  326,  327,  328,  329,  330,  331,  332,  356,  357,  358,  359,  360
  361,  362,  363,  364,  365,  366,  367,  368,  369,  370,  371,  372,  373,  374,  375,  376
  377,  378,  379,  380,  381,  382,  383,  384,  385,  386,  387,  388,  389,  390,  391,  392
  393,  394,  395,  396,  397,  398,  399,  400,  401,  402,  403,  404,  405,  406,  407,  408
  409,  410,  411,  412,  413,  414,  415,  416,  417,  418,  419,  420,  421,  422,  423,  424
  425,  426,  427,  428,  429,  430,  431,  432,  433,  434,  435,  436,  437,  438,  439,  440
  441,  494,  495,  496,  497,  498,  499,  500,  501,  502,  503,  504,  505,  506,  507,  508
  509,  510,  511,  512,  513,  514,  515,  516,  517,  518,  519,  520,  521,  522,  523,  524
** ... 130 like lines cut
*Elset, elset=Set-1, instance=deg20-1
     1,     2,     3,     4,     5,     6,     7,     8,     9,    10,    11,    12,    13,    14,    15,    16
    17,    18,    19,    20,    21,    22,    23,    24,    25,    26,    27,    28,    29,    30,    31,    32
    33,    34,    35,    36,    37,    38,    39,    40,    41,    42,    43,    44,    45,    46,    47,    48
    49,    50,    51,    52,    53,    54,    55,    56,    57,    58,    59,    60,    61,    62,    63,    64
    65,    66,    67,    68,    69,    70,    71,    72,    73,    74,    75,    76,    77,    78,    79,    80
    81,    82,    83,    84,    85,    86,    87,    88,    89,    90,    91,    92,    93,    94,    95,    96
    97,    98,    99,   100,   101,   102,   103,   104,   105,   106,   107,   108,   109,   110,   111,   112
   113,   114,   115,   116,   117,   118,   119,   120,   121,   122,   123,   124,   125,   126,   127,   128
   129,   130,   131,   132,   133,   134,   135,   136,   137,   138,   139,   140,   141,   142,   143,   144
   145,   146,   147,   148,   149,   150,   151,   152,   153,   154,   155,   156,   157,   158,   159,   160
   161,   162,   163,   164,   165,   166,   167,   168,   169,   170,   171,   172,   173,   174,   175,   176
   177,   178,   179,   180,   181,   182,   183,   184,   185,   186,   187,   188,   189,   190,   191,   192
   193,   194,   195,   196,   197,   198,   199,   200,   385,   386,   387,   388,   389,   390,   391,   392
   577,   578,   579,   580,   581,   582,   583,   584,   769,   770,   771,   772,   773,   774,   775,   776
   961,   962,   963,   964,   965,   966,   967,   968,  1153,  1154,  1155,  1156,  1157,  1158,  1159,  1160
  1345,  1346,  1347,  1348,  1349,  1350,  1351,  1352,  1537,  1538,  1539,  1540,  1541,  1542,  1543,  1544
  1729,  1730,  1731,  1732,  1733,  1734,  1735,  1736,  1921,  1922,  1923,  1924,  1925,  1926,  1927,  1928
  2113,  2114,  2115,  2116,  2117,  2118,  2119,  2120,  2305,  2306,  2307,  2308,  2309,  2310,  2311,  2312
  2497,  2498,  2499,  2500,  2501,  2502,  2503,  2504,  2689,  2690,  2691,  2692,  2693,  2694,  2695,  2696
  2881,  2882,  2883,  2884,  2885,  2886,  2887,  2888,  3073,  3074,  3075,  3076,  3077,  3078,  3079,  3080
** ... 115 like lines cut
*Nset, nset=Set-2, instance=deg20-1
    2,    3,    5,    6,    9,   11,   19,   20,   23,   41,   42,   43,   44,   45,   46,   47
   48,   49,   50,   51,   52,   53,   54,   55,   56,   57,   58,   59,   60,   61,   62,   63
  101,  102,  103,  104,  105,  106,  107,  108,  109,  110,  111,  112,  113,  114,  115,  116
  117,  118,  119,  120,  121,  122,  123,  202,  203,  204,  205,  206,  207,  208,  209,  210
  211,  212,  213,  214,  215,  216,  217,  218,  219,  220,  221,  222,  223,  224,  225,  226
  227,  228,  229,  230,  231,  232,  233,  234,  235,  236,  237,  238,  239,  240,  241,  242
  243,  244,  245,  246,  247,  248,  249,  250,  251,  252,  253,  254,  255,  256,  257,  258
  259,  260,  261,  262,  263,  264,  265,  266,  267,  268,  269,  270,  271,  272,  303,  304
  305,  306,  307,  308,  309,  310,  311,  312,  313,  314,  315,  316,  317,  318,  319,  320
  321,  322,  323,  324,  325,  380,  381,  382,  383,  384,  385,  386,  387,  388,  389,  390
  391,  392,  393,  394,  395,  396,  397,  398,  399,  400,  401,  402,  403,  598,  599,  600
  601,  602,  603,  604,  605,  606,  607,  608,  609,  610,  611,  612,  613,  614,  615,  616
  617,  618,  619,  620,  621,  622,  623,  624,  625,  626,  627,  628,  629,  630,  631,  632
  633,  634,  635,  636,  637,  638,  639,  640,  641,  642,  643,  644,  645,  646,  647,  648
  649,  650,  651,  652,  653,  654,  655,  656,  657,  658,  659,  660,  738,  739,  740,  741
  742,  743,  744,  745,  746,  747,  748,  749,  750,  751,  752,  753,  754,  755,  756,  757
  758,  759,  760,  761,  762,  763,  764,  765,  766,  767,  768,  769,  770,  771,  772,  773
  774,  775,  776,  777,  778,  779,  780, 1918, 1919, 1920, 1921, 1922, 1923, 1924, 1925, 1926
 1927, 1928, 1929, 1930, 1931, 1932, 1933, 1934, 1935, 1936, 1937, 1938, 1939, 1940, 1941, 1942
 1943, 1944, 1945, 1946, 1947, 1948, 1949, 1950, 1951, 1952, 1953, 1954, 1955, 1956, 1957, 1958
** ... 124 like lines cut
*Elset, elset=Set-2, instance=deg20-1
     8,    16,    24,    32,    40,    48,    56,    64,    72,    80,    88,    96,   104,   112,   120,   128
   136,   144,   152,   160,   168,   176,   184,   192,   200,   208,   216,   224,   232,   240,   248,   256
   264,   272,   280,   288,   296,   304,   312,   320,   328,   336,   344,   352,   360,   368,   376,   384
   392,   400,   408,   416,   424,   432,   440,   448,   456,   464,   472,   480,   488,   496,   504,   512
   520,   528,   536,   544,   552,   560,   568,   576,   584,   592,   600,   608,   616,   624,   632,   640
   648,   656,   664,   672,   680,   688,   696,   704,   712,   720,   728,   736,   744,   752,   760,   768
   776,   784,   792,   800,   808,   816,   824,   832,   840,   848,   856,   864,   872,   880,   888,   896
   904,   912,   920,   928,   936,   944,   952,   960,   968,   976,   984,   992,  1000,  1008,  1016,  1024
  1032,  1040,  1048,  1056,  1064,  1072,  1080,  1088,  1096,  1104,  1112,  1120,  1128,  1136,  1144,  1152
  1160,  1168,  1176,  1184,  1192,  1200,  1208,  1216,  1224,  1232,  1240,  1248,  1256,  1264,  1272,  1280
  1288,  1296,  1304,  1312,  1320,  1328,  1336,  1344,  1352,  1360,  1368,  1376,  1384,  1392,  1400,  1408
  1416,  1424,  1432,  1440,  1448,  1456,  1464,  1472,  1480,  1488,  1496,  1504,  1512,  1520,  1528,  1536
  1544,  1552,  1560,  1568,  1576,  1584,  1592,  1600,  1608,  1616,  1624,  1632,  1640,  1648,  1656,  1664
  1672,  1680,  1688,  1696,  1704,  1712,  1720,  1728,  1736,  1744,  1752,  1760,  1768,  1776,  1784,  1792
  1800,  1808,  1816,  1824,  1832,  1840,  1848,  1856,  1864,  1872,  1880,  1888,  1896,  1904,  1912,  1920
  1928,  1936,  1944,  1952,  1960,  1968,  1976,  1984,  1992,  2000,  2008,  2016,  2024,  2032,  2040,  2048
  2056,  2064,  2072,  2080,  2088,  2096,  2104,  2112,  2120,  2128,  2136,  2144,  2152,  2160,  2168,  2176
  2184,  2192,  2200,  2208,  2216,  2224,  2232,  2240,  2248,  2256,  2264,  2272,  2280,  2288,  2296,  2304
  2312,  2320,  2328,  2336,  2344,  2352,  2360,  2368,  2376,  2384,  2392,  2400,  2408,  2416,  2424,  2432
  2440,  2448,  2456,  2464,  2472,  2480,  2488,  2496,  2504,  2512,  2520,  2528,  2536,  2544,  2552,  2560
** ... 118 like lines cut
*Elset, elset=_Surf-1_S4, internal, instance=deg20-1, generate
  9606,  13200,      6
*Elset, elset=_Surf-1_S3, internal, instance=deg20-1
 13201, 13202, 13203, 13204, 13205, 13206, 13207, 13208, 13209, 13210, 13211, 13212, 13213, 13214, 13215, 13216
 13217, 13218, 13219, 13220, 13221, 13222, 13223, 13224, 13345, 13346, 13347, 13348, 13349, 13350, 13351, 13352
 13353, 13354, 13355, 13356, 13357, 13358, 13359, 13360, 13361, 13362, 13363, 13364, 13365, 13366, 13367, 13368
 13489, 13490, 13491, 13492, 13493, 13494, 13495, 13496, 13497, 13498, 13499, 13500, 13501, 13502, 13503, 13504
 13505, 13506, 13507, 13508, 13509, 13510, 13511, 13512, 13633, 13634, 13635, 13636, 13637, 13638, 13639, 13640
 13641, 13642, 13643, 13644, 13645, 13646, 13647, 13648, 13649, 13650, 13651, 13652, 13653, 13654, 13655, 13656
 13777, 13778, 13779, 13780, 13781, 13782, 13783, 13784, 13785, 13786, 13787, 13788, 13789, 13790, 13791, 13792
 13793, 13794, 13795, 13796, 13797, 13798, 13799, 13800, 13921, 13922, 13923, 13924, 13925, 13926, 13927, 13928
 13929, 13930, 13931, 13932, 13933, 13934, 13935, 13936, 13937, 13938, 13939, 13940, 13941, 13942, 13943, 13944
 14065, 14066, 14067, 14068, 14069, 14070, 14071, 14072, 14073, 14074, 14075, 14076, 14077, 14078, 14079, 14080
 14081, 14082, 14083, 14084, 14085, 14086, 14087, 14088, 14209, 14210, 14211, 14212, 14213, 14214, 14215, 14216
 14217, 14218, 14219, 14220, 14221, 14222, 14223, 14224, 14225, 14226, 14227, 14228, 14229, 14230, 14231, 14232
 14353, 14354, 14355, 14356, 14357, 14358, 14359, 14360, 14361, 14362, 14363, 14364, 14365, 14366, 14367, 14368
 14369, 14370, 14371, 14372, 14373, 14374, 14375, 14376, 14497, 14498, 14499, 14500, 14501, 14502, 14503, 14504
 14505, 14506, 14507, 14508, 14509, 14510, 14511, 14512, 14513, 14514, 14515, 14516, 14517, 14518, 14519, 14520
 14641, 14642, 14643, 14644, 14645, 14646, 14647, 14648, 14649, 14650, 14651, 14652, 14653, 14654, 14655, 14656
 14657, 14658, 14659, 14660, 14661, 14662, 14663, 14664, 14785, 14786, 14787, 14788, 14789, 14790, 14791, 14792
 14793, 14794, 14795, 14796, 14797, 14798, 14799, 14800, 14801, 14802, 14803, 14804, 14805, 14806, 14807, 14808
 14929, 14930, 14931, 14932, 14933, 14934, 14935, 14936, 14937, 14938, 14939, 14940, 14941, 14942, 14943, 14944
 14945, 14946, 14947, 14948, 14949, 14950, 14951, 14952, 15073, 15074, 15075, 15076, 15077, 15078, 15079, 15080
** ... 21 like lines cut
*Surface, type=ELEMENT, name=Surf-1
_Surf-1_S4, S4
_Surf-1_S3, S3
*End Assembly
** 
** MATERIALS
** 
*Material, name=Material-1
*Elastic
 31622.8, 0.2
** ----------------------------------------------------------------
** 
** STEP: Step-1
** 
*Step, name=Step-1, nlgeom=NO
*Static
0.1, 1., 1e-05, 1.
** 
** BOUNDARY CONDITIONS
** 
** Name: BC-1 Type: Symmetry/Antisymmetry/Encastre
*Boundary
Set-1, ZASYMM
** Name: BC-2 Type: Symmetry/Antisymmetry/Encastre
*Boundary
Set-2, ENCASTRE
** 
** LOADS
** 
** Name: Load-1   Type: Pressure
*Dsload
Surf-1, P, 5.
** 
** OUTPUT REQUESTS
** 
*Restart, write, frequency=0
** 
** FIELD OUTPUT: F-Output-2
** 
*Output, field
*Node Output
U, 
*Element Output, directions=YES
E, S
** 
** FIELD OUTPUT: F-Output-1
** 
*Output, field, variable=PRESELECT
** 
** HISTORY OUTPUT: H-Output-1
** 
*Output, history, variable=PRESELECT
*End Step
