*Heading
** Job name: 20S Model name: 20
** Generated by: Abaqus/CAE 2018
*Preprint, echo=NO, model=NO, history=NO, contact=NO
**
** PARTS
**
*Part, name=P20
*End Part
**  
**
** ASSEMBLY
**
*Assembly, name=Assembly
**  
*Instance, name=P20-1, part=P20
*Node
      1,         230.,         250.,           0.
      2,         230.,           0.,           0.
      3,           0.,           0.,           0.
      4,           0.,         250.,           0.
      5,         230.,           0.,         100.
      6,           0.,           0.,          50.
      7,           0.,         250.,          50.
      8,         230.,         250.,         100.
      9,         250.,           0.,           0.
     10,         250.,         250.,           0.
     11,         250.,         250.,         100.
     12,         250.,           0.,         100.
     13,         230.,   241.935486,           0.
     14,         230.,   233.870972,           0.
     15,         230.,   225.806458,           0.
     16,         230.,   217.741928,           0.
     17,         230.,   209.677414,           0.
     18,         230.,     201.6129,           0.
     19,         230.,   193.548386,           0.
     20,         230.,   185.483871,           0.
** ... 11596 like lines cut
*Element, type=C3D8R
   1,   262,  2551,  3517,  2047,     1,    13,   367,   128
   2,  2551,  2552,  3518,  3517,    13,    14,   368,   367
   3,  2552,  2553,  3519,  3518,    14,    15,   369,   368
   4,  2553,  2554,  3520,  3519,    15,    16,   370,   369
   5,  2554,  2555,  3521,  3520,    16,    17,   371,   370
   6,  2555,  2556,  3522,  3521,    17,    18,   372,   371
   7,  2556,  2557,  3523,  3522,    18,    19,   373,   372
   8,  2557,  2558,  3524,  3523,    19,    20,   374,   373
   9,  2558,  2559,  3525,  3524,    20,    21,   375,   374
  10,  2559,  2560,  3526,  3525,    21,    22,   376,   375
  11,  2560,  2561,  3527,  3526,    22,    23,   377,   376
  12,  2561,  2562,  3528,  3527,    23,    24,   378,   377
  13,  2562,  2563,  3529,  3528,    24,    25,   379,   378
  14,  2563,  2564,  3530,  3529,    25,    26,   380,   379
  15,  2564,  2565,  3531,  3530,    26,    27,   381,   380
  16,  2565,  2566,  3532,  3531,    27,    28,   382,   381
  17,  2566,  2567,  3533,  3532,    28,    29,   383,   382
  18,  2567,  2568,  3534,  3533,    29,    30,   384,   383
  19,  2568,  2569,  3535,  3534,    30,    31,   385,   384
  20,  2569,  2570,  3536,  3535,    31,    32,   386,   385
** ... 9900 like lines cut
*Nset, nset=Set-1, generate
     1,  11616,      1
*Elset, elset=Set-1, generate
    1,  9920,     1
** Section: Section-1
*Solid Section, elset=Set-1, material=Material-1
,
*End Instance
**  
*Nset, nset=Set-1, instance=P20-1
    1,    2,    3,    4,    5,    6,    7,    8,    9,   10,   11,   12,   43,   44,   45,   46
   47,   48,   49,   50,   51,   52,   53,   54,   55,   56,   57,   58,   59,   60,   61,   62
   63,   64,   65,   66,   67,   68,   69,   70,   71,   72,   73,   74,   75,   76,   77,   78
   79,   80,   81,   82,   83,   84,   85,   86,   87,   88,   89,   90,   91,   92,   93,   94
   95,   96,   97,   98,   99,  100,  101,  102,  103,  104,  105,  106,  107,  108,  109,  110
  111,  112,  113,  114,  115,  116,  117,  118,  119,  120,  121,  122,  123,  124,  125,  126
  127,  128,  159,  160,  161,  162,  163,  164,  165,  166,  167,  168,  169,  170,  171,  172
  173,  174,  175,  176,  177,  178,  179,  180,  181,  182,  183,  184,  185,  186,  187,  188
  189,  190,  191,  192,  193,  194,  195,  196,  197,  198,  199,  200,  201,  202,  203,  204
  205,  206,  207,  208,  209,  210,  211,  212,  213,  214,  215,  216,  217,  218,  219,  220
  221,  222,  223,  224,  225,  226,  227,  228,  229,  230,  231,  232,  233,  234,  235,  236
  237,  238,  239,  240,  241,  242,  243,  244,  245,  246,  247,  248,  249,  250,  251,  252
  253,  254,  255,  256,  257,  258,  259,  260,  261,  262,  263,  264,  265,  266,  267,  268
  269,  270,  271,  272,  273,  274,  275,  276,  277,  278,  279,  280,  281,  282,  283,  284
  285,  286,  287,  288,  289,  290,  291,  292,  293,  294,  295,  296,  297,  298,  299,  300
  301,  302,  303,  304,  305,  306,  307,  308,  309,  310,  311,  312,  313,  314,  315,  316
  317,  318,  319,  320,  321,  322,  323,  324,  325,  326,  327,  328,  329,  330,  331,  332
  333,  334,  335,  336,  337,  338,  339,  340,  341,  342,  343,  344,  345,  346,  347,  348
  349,  350,  351,  352,  353,  354,  355,  356,  357,  358,  359,  360,  361,  362,  363,  364
  365,  366, 2047, 2048, 2049, 2050, 2051, 2052, 2053, 2054, 2055, 2056, 2057, 2058, 2059, 2060
** ... 67 like lines cut
*Elset, elset=Set-1, instance=P20-1
    1,   31,   32,   62,   63,   93,   94,  124,  125,  155,  156,  186,  187,  217,  218,  248
  249,  279,  280,  310,  311,  341,  342,  372,  373,  403,  404,  434,  435,  465,  466,  496
  497,  527,  528,  558,  559,  589,  590,  620,  621,  651,  652,  682,  683,  713,  714,  744
  745,  775,  776,  806,  807,  837,  838,  868,  869,  870,  871,  872,  873,  874,  875,  876
  877,  878,  879,  880,  881,  882,  883,  884,  885,  886,  887,  888,  889,  890,  891,  892
  893,  894,  895,  896,  897,  898,  899,  900,  930,  931,  961,  962,  992,  993, 1023, 1024
 1054, 1055, 1085, 1086, 1116, 1117, 1147, 1148, 1178, 1179, 1209, 1210, 1240, 1241, 1271, 1272
 1302, 1303, 1333, 1334, 1364, 1365, 1395, 1396, 1426, 1427, 1457, 1458, 1488, 1489, 1519, 1520
 1550, 1551, 1581, 1582, 1612, 1613, 1643, 1644, 1674, 1675, 1705, 1706, 1736, 1737, 1767, 1768
 1769, 1770, 1771, 1772, 1773, 1774, 1775, 1776, 1777, 1778, 1779, 1780, 1781, 1782, 1783, 1784
 1785, 1786, 1787, 1788, 1789, 1790, 1791, 1792, 1793, 1794, 1795, 1796, 1797, 1798, 1799, 1829
 1830, 1860, 1861, 1891, 1892, 1922, 1923, 1953, 1954, 1984, 1985, 2015, 2016, 2046, 2047, 2077
 2078, 2108, 2109, 2139, 2140, 2170, 2171, 2201, 2202, 2232, 2233, 2263, 2264, 2294, 2295, 2325
 2326, 2356, 2357, 2387, 2388, 2418, 2419, 2449, 2450, 2480, 2481, 2511, 2512, 2542, 2543, 2573
 2574, 2604, 2605, 2635, 2636, 2666, 2667, 2668, 2669, 2670, 2671, 2672, 2673, 2674, 2675, 2676
 2677, 2678, 2679, 2680, 2681, 2682, 2683, 2684, 2685, 2686, 2687, 2688, 2689, 2690, 2691, 2692
 2693, 2694, 2695, 2696, 2697, 2698, 2728, 2729, 2759, 2760, 2790, 2791, 2821, 2822, 2852, 2853
 2883, 2884, 2914, 2915, 2945, 2946, 2976, 2977, 3007, 3008, 3038, 3039, 3069, 3070, 3100, 3101
 3131, 3132, 3162, 3163, 3193, 3194, 3224, 3225, 3255, 3256, 3286, 3287, 3317, 3318, 3348, 3349
 3379, 3380, 3410, 3411, 3441, 3442, 3472, 3473, 3503, 3504, 3534, 3535, 3565, 3566, 3567, 3568
** ... 57 like lines cut
*Nset, nset=Set-2, instance=P20-1
    1,    2,    3,    4,    9,   10,   13,   14,   15,   16,   17,   18,   19,   20,   21,   22
   23,   24,   25,   26,   27,   28,   29,   30,   31,   32,   33,   34,   35,   36,   37,   38
   39,   40,   41,   42,   43,   44,   45,   46,   47,   48,   49,   50,   51,   52,   53,   54
   55,   56,   57,   58,   59,   60,   61,   62,   63,   64,   65,   66,   67,   68,   69,   70
   71,   72,   73,   74,   75,   76,   77,   78,   79,   80,   81,   82,   83,   84,   85,   86
   87,   88,   89,   90,   91,   92,   93,   94,   95,   96,   97,   98,   99,  100,  101,  102
  103,  104,  105,  106,  107,  108,  109,  110,  111,  112,  113,  114,  115,  116,  117,  118
  119,  120,  121,  122,  123,  124,  125,  126,  127,  128,  281,  282,  283,  284,  285,  286
  287,  288,  289,  290,  291,  292,  293,  294,  295,  296,  297,  298,  299,  300,  301,  302
  303,  304,  305,  306,  307,  308,  309,  310,  361,  362,  365,  366,  367,  368,  369,  370
  371,  372,  373,  374,  375,  376,  377,  378,  379,  380,  381,  382,  383,  384,  385,  386
  387,  388,  389,  390,  391,  392,  393,  394,  395,  396,  397,  398,  399,  400,  401,  402
  403,  404,  405,  406,  407,  408,  409,  410,  411,  412,  413,  414,  415,  416,  417,  418
  419,  420,  421,  422,  423,  424,  425,  426,  427,  428,  429,  430,  431,  432,  433,  434
  435,  436,  437,  438,  439,  440,  441,  442,  443,  444,  445,  446,  447,  448,  449,  450
  451,  452,  453,  454,  455,  456,  457,  458,  459,  460,  461,  462,  463,  464,  465,  466
  467,  468,  469,  470,  471,  472,  473,  474,  475,  476,  477,  478,  479,  480,  481,  482
  483,  484,  485,  486,  487,  488,  489,  490,  491,  492,  493,  494,  495,  496,  497,  498
  499,  500,  501,  502,  503,  504,  505,  506,  507,  508,  509,  510,  511,  512,  513,  514
  515,  516,  517,  518,  519,  520,  521,  522,  523,  524,  525,  526,  527,  528,  529,  530
** ... 46 like lines cut
*Elset, elset=Set-2, instance=P20-1
    1,    2,    3,    4,    5,    6,    7,    8,    9,   10,   11,   12,   13,   14,   15,   16
   17,   18,   19,   20,   21,   22,   23,   24,   25,   26,   27,   28,   29,   30,   31,   32
   33,   34,   35,   36,   37,   38,   39,   40,   41,   42,   43,   44,   45,   46,   47,   48
   49,   50,   51,   52,   53,   54,   55,   56,   57,   58,   59,   60,   61,   62,   63,   64
   65,   66,   67,   68,   69,   70,   71,   72,   73,   74,   75,   76,   77,   78,   79,   80
   81,   82,   83,   84,   85,   86,   87,   88,   89,   90,   91,   92,   93,   94,   95,   96
   97,   98,   99,  100,  101,  102,  103,  104,  105,  106,  107,  108,  109,  110,  111,  112
  113,  114,  115,  116,  117,  118,  119,  120,  121,  122,  123,  124,  125,  126,  127,  128
  129,  130,  131,  132,  133,  134,  135,  136,  137,  138,  139,  140,  141,  142,  143,  144
  145,  146,  147,  148,  149,  150,  151,  152,  153,  154,  155,  156,  157,  158,  159,  160
  161,  162,  163,  164,  165,  166,  167,  168,  169,  170,  171,  172,  173,  174,  175,  176
  177,  178,  179,  180,  181,  182,  183,  184,  185,  186,  187,  188,  189,  190,  191,  192
  193,  194,  195,  196,  197,  198,  199,  200,  201,  202,  203,  204,  205,  206,  207,  208
  209,  210,  211,  212,  213,  214,  215,  216,  217,  218,  219,  220,  221,  222,  223,  224
  225,  226,  227,  228,  229,  230,  231,  232,  233,  234,  235,  236,  237,  238,  239,  240
  241,  242,  243,  244,  245,  246,  247,  248,  249,  250,  251,  252,  253,  254,  255,  256
  257,  258,  259,  260,  261,  262,  263,  264,  265,  266,  267,  268,  269,  270,  271,  272
  273,  274,  275,  276,  277,  278,  279,  280,  281,  282,  283,  284,  285,  286,  287,  288
  289,  290,  291,  292,  293,  294,  295,  296,  297,  298,  299,  300,  301,  302,  303,  304
  305,  306,  307,  308,  309,  310,  311,  312,  313,  314,  315,  316,  317,  318,  319,  320
** ... 42 like lines cut
*Elset, elset=_Surf-1_S5, internal, instance=P20-1
 9270, 9271, 9272, 9273, 9274, 9275, 9276, 9277, 9278, 9279, 9280, 9281, 9282, 9283, 9284, 9285
 9286, 9287, 9288, 9289, 9290, 9291, 9292, 9293, 9294, 9295, 9296, 9297, 9298, 9299, 9300, 9580
 9581, 9582, 9583, 9584, 9585, 9586, 9587, 9588, 9589, 9590, 9591, 9592, 9593, 9594, 9595, 9596
 9597, 9598, 9599, 9600, 9601, 9602, 9603, 9604, 9605, 9606, 9607, 9608, 9609, 9610, 9890, 9891
 9892, 9893, 9894, 9895, 9896, 9897, 9898, 9899, 9900, 9901, 9902, 9903, 9904, 9905, 9906, 9907
 9908, 9909, 9910, 9911, 9912, 9913, 9914, 9915, 9916, 9917, 9918, 9919, 9920
*Surface, type=ELEMENT, name=Surf-1
_Surf-1_S5, S5
*Elset, elset=_Surf-2_S5, internal, instance=P20-1
 9270, 9271, 9272, 9273, 9274, 9275, 9276, 9277, 9278, 9279, 9280, 9281, 9282, 9283, 9284, 9285
 9286, 9287, 9288, 9289, 9290, 9291, 9292, 9293, 9294, 9295, 9296, 9297, 9298, 9299, 9300, 9580
 9581, 9582, 9583, 9584, 9585, 9586, 9587, 9588, 9589, 9590, 9591, 9592, 9593, 9594, 9595, 9596
 9597, 9598, 9599, 9600, 9601, 9602, 9603, 9604, 9605, 9606, 9607, 9608, 9609, 9610, 9890, 9891
 9892, 9893, 9894, 9895, 9896, 9897, 9898, 9899, 9900, 9901, 9902, 9903, 9904, 9905, 9906, 9907
 9908, 9909, 9910, 9911, 9912, 9913, 9914, 9915, 9916, 9917, 9918, 9919, 9920
*Surface, type=ELEMENT, name=Surf-2
_Surf-2_S5, S5
*End Assembly
*Amplitude, name=Amp-1
            0.1,           514.8,             0.2,          1029.6,             0.3,          1544.4,             0.4,          2059.2
            0.5,           2574.,             0.6,          3088.8,             0.7,          3603.6,             0.8,          4118.4
            0.9,          4633.2,              1.,           5148.
** 
** MATERIALS
** 
*Material, name=Material-1
*Elastic
 31622.8, 0.2
** ----------------------------------------------------------------
** 
** STEP: Step-1
** 
*Step, name=Step-1, nlgeom=NO
*Static
0.1, 1., 1e-05, 1.
** 
** BOUNDARY CONDITIONS
** 
** Name: BC-1 Type: Symmetry/Antisymmetry/Encastre
*Boundary
Set-1, ZASYMM
** Name: BC-2 Type: Symmetry/Antisymmetry/Encastre
*Boundary
Set-2, ENCASTRE
** 
** LOADS
** 
** Name: Load-1   Type: Pressure
*Dsload
Surf-2, P, 0.8
** 
** OUTPUT REQUESTS
** 
*Restart, write, frequency=0
** 
** FIELD OUTPUT: F-Output-2
** 
*Output, field
*Node Output
U, 
*Element Output, directions=YES
E, S
** 
** FIELD OUTPUT: F-Output-1
** 
*Output, field, variable=PRESELECT
** 
** HISTORY OUTPUT: H-Output-1
** 
*Output, history, variable=PRESELECT
*End Step
