*Heading
** Job name: 210 Model name: 210
** Generated by: Abaqus/CAE 2018
*Preprint, echo=NO, model=NO, history=NO, contact=NO
**
** PARTS
**
*Part, name=P210
*End Part
**  
**
** ASSEMBLY
**
*Assembly, name=Assembly
**  
*Instance, name=P210-1, part=P210
*Node
      1,         210.,    43.743557,         100.
      2,   268.467865,         77.5,         100.
      3,   268.467865,        232.5,         100.
      4,         210.,   266.256439,         100.
      5,   134.233932,           0.,   81.9604645
      6,           0.,         77.5,          50.
      7,   134.233932,         310.,   81.9604645
      8,           0.,        232.5,          50.
      9,         210.,   255.408691,         100.
     10,         210.,   245.237213,         100.
     11,         210.,   235.272308,         100.
     12,         210.,   225.388184,         100.
     13,         210.,   215.545517,         100.
     14,         210.,   205.738602,         100.
     15,         210.,   195.987076,         100.
     16,         210.,   186.286026,         100.
     17,         210.,    176.58194,         100.
     18,         210.,   166.904144,         100.
     19,         210.,   157.266083,         100.
     20,         210.,   147.639023,         100.
** ... 10276 like lines cut
*Element, type=C3D8R
   1,    30,   145,    31,     1,   966,  1081,   967,   937
   2,   145,   146,    32,    31,  1081,  1082,   968,   967
   3,   146,   147,    33,    32,  1082,  1083,   969,   968
   4,   147,   148,    34,    33,  1083,  1084,   970,   969
   5,   148,   149,    35,    34,  1084,  1085,   971,   970
   6,   149,   150,    36,    35,  1085,  1086,   972,   971
   7,   150,   151,    37,    36,  1086,  1087,   973,   972
   8,   151,    38,     2,    37,  1087,   974,   938,   973
   9,    29,   152,   145,    30,   965,  1088,  1081,   966
  10,   152,   153,   146,   145,  1088,  1089,  1082,  1081
  11,   153,   154,   147,   146,  1089,  1090,  1083,  1082
  12,   154,   155,   148,   147,  1090,  1091,  1084,  1083
  13,   155,   156,   149,   148,  1091,  1092,  1085,  1084
  14,   156,   157,   150,   149,  1092,  1093,  1086,  1085
  15,   157,   158,   151,   150,  1093,  1094,  1087,  1086
  16,   158,    39,    38,   151,  1094,   975,   974,  1087
  17,    28,   159,   152,    29,   964,  1095,  1088,   965
  18,   159,   160,   153,   152,  1095,  1096,  1089,  1088
  19,   160,   161,   154,   153,  1096,  1097,  1090,  1089
  20,   161,   162,   155,   154,  1097,  1098,  1091,  1090
** ... 8720 like lines cut
*Nset, nset=Set-1, generate
     1,  10296,      1
*Elset, elset=Set-1, generate
    1,  8740,     1
** Section: Section-1
*Solid Section, elset=Set-1, material=Material-1
,
*End Instance
**  
*Nset, nset=Set-1, instance=P210-1
    2,    3,    4,    7,    8,   38,   39,   40,   41,   42,   43,   44,   45,   46,   47,   48
   49,   50,   51,   52,   53,   54,   55,   56,   57,   58,   59,   60,   61,   62,   63,   64
   65,   66,   77,   78,   79,   80,   81,   82,   83,   84,   85,   86,   87,   88,   89,   90
   91,   92,   93,   94,   95,   96,   97,   98,   99,  100,  101,  102,  103,  104,  938,  939
  940,  943,  944,  974,  975,  976,  977,  978,  979,  980,  981,  982,  983,  984,  985,  986
  987,  988,  989,  990,  991,  992,  993,  994,  995,  996,  997,  998,  999, 1000, 1001, 1002
 1013, 1014, 1015, 1016, 1017, 1018, 1019, 1020, 1021, 1022, 1023, 1024, 1025, 1026, 1027, 1028
 1029, 1030, 1031, 1032, 1033, 1034, 1035, 1036, 1037, 1038, 1039, 1040, 1874, 1875, 1876, 1879
 1880, 1910, 1911, 1912, 1913, 1914, 1915, 1916, 1917, 1918, 1919, 1920, 1921, 1922, 1923, 1924
 1925, 1926, 1927, 1928, 1929, 1930, 1931, 1932, 1933, 1934, 1935, 1936, 1937, 1938, 1949, 1950
 1951, 1952, 1953, 1954, 1955, 1956, 1957, 1958, 1959, 1960, 1961, 1962, 1963, 1964, 1965, 1966
 1967, 1968, 1969, 1970, 1971, 1972, 1973, 1974, 1975, 1976, 2810, 2811, 2812, 2815, 2816, 2846
 2847, 2848, 2849, 2850, 2851, 2852, 2853, 2854, 2855, 2856, 2857, 2858, 2859, 2860, 2861, 2862
 2863, 2864, 2865, 2866, 2867, 2868, 2869, 2870, 2871, 2872, 2873, 2874, 2885, 2886, 2887, 2888
 2889, 2890, 2891, 2892, 2893, 2894, 2895, 2896, 2897, 2898, 2899, 2900, 2901, 2902, 2903, 2904
 2905, 2906, 2907, 2908, 2909, 2910, 2911, 2912, 3746, 3747, 3748, 3751, 3752, 3782, 3783, 3784
 3785, 3786, 3787, 3788, 3789, 3790, 3791, 3792, 3793, 3794, 3795, 3796, 3797, 3798, 3799, 3800
 3801, 3802, 3803, 3804, 3805, 3806, 3807, 3808, 3809, 3810, 3821, 3822, 3823, 3824, 3825, 3826
 3827, 3828, 3829, 3830, 3831, 3832, 3833, 3834, 3835, 3836, 3837, 3838, 3839, 3840, 3841, 3842
 3843, 3844, 3845, 3846, 3847, 3848, 4682, 4683, 4684, 4687, 4688, 4718, 4719, 4720, 4721, 4722
** ... 23 like lines cut
*Elset, elset=Set-1, instance=P210-1
    8,   16,   24,   32,   40,   48,   56,   64,   72,   80,   88,   96,  104,  112,  120,  128
  136,  144,  152,  160,  168,  176,  177,  178,  179,  180,  181,  182,  183,  184,  845,  846
  847,  848,  849,  850,  851,  852,  853,  854,  855,  856,  857,  858,  859,  860,  861,  862
  863,  864,  865,  866,  867,  868,  869,  870,  871,  872,  873,  874,  882,  890,  898,  906
  914,  922,  930,  938,  946,  954,  962,  970,  978,  986,  994, 1002, 1010, 1018, 1026, 1034
 1042, 1050, 1051, 1052, 1053, 1054, 1055, 1056, 1057, 1058, 1719, 1720, 1721, 1722, 1723, 1724
 1725, 1726, 1727, 1728, 1729, 1730, 1731, 1732, 1733, 1734, 1735, 1736, 1737, 1738, 1739, 1740
 1741, 1742, 1743, 1744, 1745, 1746, 1747, 1748, 1756, 1764, 1772, 1780, 1788, 1796, 1804, 1812
 1820, 1828, 1836, 1844, 1852, 1860, 1868, 1876, 1884, 1892, 1900, 1908, 1916, 1924, 1925, 1926
 1927, 1928, 1929, 1930, 1931, 1932, 2593, 2594, 2595, 2596, 2597, 2598, 2599, 2600, 2601, 2602
 2603, 2604, 2605, 2606, 2607, 2608, 2609, 2610, 2611, 2612, 2613, 2614, 2615, 2616, 2617, 2618
 2619, 2620, 2621, 2622, 2630, 2638, 2646, 2654, 2662, 2670, 2678, 2686, 2694, 2702, 2710, 2718
 2726, 2734, 2742, 2750, 2758, 2766, 2774, 2782, 2790, 2798, 2799, 2800, 2801, 2802, 2803, 2804
 2805, 2806, 3467, 3468, 3469, 3470, 3471, 3472, 3473, 3474, 3475, 3476, 3477, 3478, 3479, 3480
 3481, 3482, 3483, 3484, 3485, 3486, 3487, 3488, 3489, 3490, 3491, 3492, 3493, 3494, 3495, 3496
 3504, 3512, 3520, 3528, 3536, 3544, 3552, 3560, 3568, 3576, 3584, 3592, 3600, 3608, 3616, 3624
 3632, 3640, 3648, 3656, 3664, 3672, 3673, 3674, 3675, 3676, 3677, 3678, 3679, 3680, 4341, 4342
 4343, 4344, 4345, 4346, 4347, 4348, 4349, 4350, 4351, 4352, 4353, 4354, 4355, 4356, 4357, 4358
 4359, 4360, 4361, 4362, 4363, 4364, 4365, 4366, 4367, 4368, 4369, 4370, 4378, 4386, 4394, 4402
 4410, 4418, 4426, 4434, 4442, 4450, 4458, 4466, 4474, 4482, 4490, 4498, 4506, 4514, 4522, 4530
** ... 18 like lines cut
*Nset, nset=Set-2, instance=P210-1
    1,    2,    3,    4,    5,    6,    7,    8,   31,   32,   33,   34,   35,   36,   37,   38
   39,   40,   41,   42,   43,   44,   45,   46,   47,   48,   49,   50,   51,   52,   53,   54
   55,   56,   57,   58,   59,   60,   61,   62,   63,   64,   65,   66,   67,   68,   69,   70
   71,   72,   73,   74,   75,   76,   77,   78,   79,   80,   81,   82,   83,   84,   85,   86
   87,   88,   89,   90,   91,   92,   93,   94,   95,   96,   97,   98,   99,  100,  101,  102
  103,  104,  105,  106,  107,  108,  109,  110,  111,  112,  113,  114,  115,  116,  117,  118
  119,  120,  121,  122,  123,  124,  125,  126,  127,  128,  129,  130,  131,  132,  133,  134
  135,  136,  137,  138,  139,  140,  141,  142,  143,  144,  937,  938,  939,  940,  941,  942
  943,  944,  967,  968,  969,  970,  971,  972,  973,  974,  975,  976,  977,  978,  979,  980
  981,  982,  983,  984,  985,  986,  987,  988,  989,  990,  991,  992,  993,  994,  995,  996
  997,  998,  999, 1000, 1001, 1002, 1003, 1004, 1005, 1006, 1007, 1008, 1009, 1010, 1011, 1012
 1013, 1014, 1015, 1016, 1017, 1018, 1019, 1020, 1021, 1022, 1023, 1024, 1025, 1026, 1027, 1028
 1029, 1030, 1031, 1032, 1033, 1034, 1035, 1036, 1037, 1038, 1039, 1040, 1041, 1042, 1043, 1044
 1045, 1046, 1047, 1048, 1049, 1050, 1051, 1052, 1053, 1054, 1055, 1056, 1057, 1058, 1059, 1060
 1061, 1062, 1063, 1064, 1065, 1066, 1067, 1068, 1069, 1070, 1071, 1072, 1073, 1074, 1075, 1076
 1077, 1078, 1079, 1080, 1873, 1874, 1875, 1876, 1877, 1878, 1879, 1880, 1903, 1904, 1905, 1906
 1907, 1908, 1909, 1910, 1911, 1912, 1913, 1914, 1915, 1916, 1917, 1918, 1919, 1920, 1921, 1922
 1923, 1924, 1925, 1926, 1927, 1928, 1929, 1930, 1931, 1932, 1933, 1934, 1935, 1936, 1937, 1938
 1939, 1940, 1941, 1942, 1943, 1944, 1945, 1946, 1947, 1948, 1949, 1950, 1951, 1952, 1953, 1954
 1955, 1956, 1957, 1958, 1959, 1960, 1961, 1962, 1963, 1964, 1965, 1966, 1967, 1968, 1969, 1970
** ... 64 like lines cut
*Elset, elset=Set-2, instance=P210-1
    1,    2,    3,    4,    5,    6,    7,    8,   16,   24,   32,   40,   48,   56,   64,   72
   80,   88,   96,  104,  112,  120,  128,  136,  144,  152,  160,  168,  176,  177,  178,  179
  180,  181,  182,  183,  184,  214,  244,  274,  304,  334,  364,  394,  424,  454,  484,  514
  544,  574,  575,  576,  577,  578,  579,  580,  581,  582,  583,  584,  585,  586,  587,  588
  589,  590,  591,  592,  593,  594,  595,  596,  597,  598,  599,  600,  601,  602,  603,  604
  605,  635,  665,  695,  725,  755,  785,  815,  845,  846,  847,  848,  849,  850,  851,  852
  853,  854,  855,  856,  857,  858,  859,  860,  861,  862,  863,  864,  865,  866,  867,  868
  869,  870,  871,  872,  873,  874,  875,  876,  877,  878,  879,  880,  881,  882,  890,  898
  906,  914,  922,  930,  938,  946,  954,  962,  970,  978,  986,  994, 1002, 1010, 1018, 1026
 1034, 1042, 1050, 1051, 1052, 1053, 1054, 1055, 1056, 1057, 1058, 1088, 1118, 1148, 1178, 1208
 1238, 1268, 1298, 1328, 1358, 1388, 1418, 1448, 1449, 1450, 1451, 1452, 1453, 1454, 1455, 1456
 1457, 1458, 1459, 1460, 1461, 1462, 1463, 1464, 1465, 1466, 1467, 1468, 1469, 1470, 1471, 1472
 1473, 1474, 1475, 1476, 1477, 1478, 1479, 1509, 1539, 1569, 1599, 1629, 1659, 1689, 1719, 1720
 1721, 1722, 1723, 1724, 1725, 1726, 1727, 1728, 1729, 1730, 1731, 1732, 1733, 1734, 1735, 1736
 1737, 1738, 1739, 1740, 1741, 1742, 1743, 1744, 1745, 1746, 1747, 1748, 1749, 1750, 1751, 1752
 1753, 1754, 1755, 1756, 1764, 1772, 1780, 1788, 1796, 1804, 1812, 1820, 1828, 1836, 1844, 1852
 1860, 1868, 1876, 1884, 1892, 1900, 1908, 1916, 1924, 1925, 1926, 1927, 1928, 1929, 1930, 1931
 1932, 1962, 1992, 2022, 2052, 2082, 2112, 2142, 2172, 2202, 2232, 2262, 2292, 2322, 2323, 2324
 2325, 2326, 2327, 2328, 2329, 2330, 2331, 2332, 2333, 2334, 2335, 2336, 2337, 2338, 2339, 2340
 2341, 2342, 2343, 2344, 2345, 2346, 2347, 2348, 2349, 2350, 2351, 2352, 2353, 2383, 2413, 2443
** ... 54 like lines cut
*Nset, nset=Set-3, instance=P210-1, generate
  9361,  10296,      1
*Elset, elset=Set-3, instance=P210-1, generate
 7867,  8740,     1
*Elset, elset=_Surf-1_S1, internal, instance=P210-1, generate
   1,  184,    1
*Surface, type=ELEMENT, name=Surf-1
_Surf-1_S1, S1
*End Assembly
** 
** MATERIALS
** 
*Material, name=Material-1
*Elastic
 31622.8, 0.2
** ----------------------------------------------------------------
** 
** STEP: Step-1
** 
*Step, name=Step-1, nlgeom=NO
*Static
0.1, 1., 1e-05, 1.
** 
** BOUNDARY CONDITIONS
** 
** Name: BC-1 Type: Symmetry/Antisymmetry/Encastre
*Boundary
Set-2, ZASYMM
** Name: BC-2 Type: Symmetry/Antisymmetry/Encastre
*Boundary
Set-3, ENCASTRE
** 
** LOADS
** 
** Name: Load-1   Type: Pressure
*Dsload
Surf-1, P, 0.8
** 
** OUTPUT REQUESTS
** 
*Restart, write, frequency=0
** 
** FIELD OUTPUT: F-Output-2
** 
*Output, field
*Node Output
U, 
*Element Output, directions=YES
E, S
** 
** FIELD OUTPUT: F-Output-1
** 
*Output, field, variable=PRESELECT
** 
** HISTORY OUTPUT: H-Output-1
** 
*Output, history, variable=PRESELECT
*End Step
