*Heading
** Job name: 210S Model name: 210
** Generated by: Abaqus/CAE 2018
*Preprint, echo=NO, model=NO, history=NO, contact=NO
**
** PARTS
**
*Part, name=P210
*End Part
**  
**
** ASSEMBLY
**
*Assembly, name=Assembly
**  
*Instance, name=P210-1, part=P210
*Node
      1,         250.,           0.,   53.8461533
      2,         250.,           0.,           0.
      3,         250.,   129.032257,           0.
      4,         250.,   129.032257,   53.8461533
      5,   34.4827576,           0.,           0.
      6,   34.4827576,   129.032257,           0.
      7,   23.5605679,   129.032242,   62.7889671
      8,   24.3186455,           0.,   62.3910751
      9,         250.,         250.,           0.
     10,         250.,         250.,   53.8461533
     11,   34.4827576,         250.,           0.
     12,   24.3642883,         250.,   62.2111092
     13,         250.,         250.,         100.
     14,         250.,   129.032257,         100.
     15,   48.0769234,         250.,         100.
     16,   48.0769234,   129.032257,         100.
     17,         250.,           0.,         100.
     18,   48.0769234,           0.,         100.
     19,           0.,           0.,           0.
     20,           0.,   129.032257,           0.
** ... 13004 like lines cut
*Element, type=C3D8R
    1,   142,  1595,  4847,   875,     1,    34,   695,    75
    2,  1595,  1596,  4848,  4847,    34,    35,   696,   695
    3,  1596,  1597,  4849,  4848,    35,    36,   697,   696
    4,  1597,  1598,  4850,  4849,    36,    37,   698,   697
    5,  1598,  1599,  4851,  4850,    37,    38,   699,   698
    6,  1599,  1600,  4852,  4851,    38,    39,   700,   699
    7,  1600,   190,  1235,  4852,    39,     2,    40,   700
    8,   875,  4847,  4853,   876,    75,   695,   701,    74
    9,  4847,  4848,  4854,  4853,   695,   696,   702,   701
   10,  4848,  4849,  4855,  4854,   696,   697,   703,   702
   11,  4849,  4850,  4856,  4855,   697,   698,   704,   703
   12,  4850,  4851,  4857,  4856,   698,   699,   705,   704
   13,  4851,  4852,  4858,  4857,   699,   700,   706,   705
   14,  4852,  1235,  1236,  4858,   700,    40,    41,   706
   15,   876,  4853,  4859,   877,    74,   701,   707,    73
   16,  4853,  4854,  4860,  4859,   701,   702,   708,   707
   17,  4854,  4855,  4861,  4860,   702,   703,   709,   708
   18,  4855,  4856,  4862,  4861,   703,   704,   710,   709
   19,  4856,  4857,  4863,  4862,   704,   705,   711,   710
   20,  4857,  4858,  4864,  4863,   705,   706,   712,   711
** ... 11233 like lines cut
*Nset, nset=Set-1, generate
     1,  13024,      1
*Elset, elset=Set-1, generate
     1,  11253,      1
** Section: Section-1
*Solid Section, elset=Set-1, material=Material-1
,
*End Instance
**  
*Nset, nset=Set-1, instance=P210-1
    1,    2,    3,    4,    5,    8,    9,   10,   11,   12,   13,   14,   15,   17,   18,   19
   20,   21,   22,   23,   24,   25,   26,   29,   30,   31,   32,   33,   34,   35,   36,   37
   38,   39,   40,   41,   42,   43,   44,   45,   46,   47,   48,   49,   50,   51,   52,   53
   54,   55,   56,   57,   58,   59,   60,   61,   62,   63,   64,   65,   66,   67,   68,   69
   70,   71,   72,   73,   74,   75,   76,   77,   78,   79,   80,   81,  142,  143,  144,  145
  146,  147,  148,  149,  150,  151,  152,  153,  154,  155,  156,  157,  158,  159,  160,  161
  162,  163,  164,  165,  190,  191,  192,  193,  194,  195,  196,  197,  198,  199,  200,  201
  202,  203,  204,  205,  206,  207,  208,  209,  210,  211,  212,  213,  214,  215,  216,  217
  218,  219,  220,  221,  222,  223,  224,  225,  226,  227,  228,  229,  230,  231,  232,  233
  234,  235,  236,  237,  238,  239,  240,  241,  242,  243,  244,  245,  246,  247,  262,  263
  264,  265,  266,  267,  282,  283,  284,  285,  286,  287,  288,  289,  290,  291,  292,  293
  294,  295,  296,  297,  298,  299,  300,  301,  302,  303,  304,  305,  306,  307,  308,  309
  310,  311,  312,  313,  314,  315,  316,  317,  318,  319,  320,  321,  322,  323,  324,  325
  326,  327,  328,  329,  330,  331,  332,  333,  334,  335,  336,  337,  338,  339,  340,  341
  342,  343,  344,  345,  346,  347,  348,  349,  350,  351,  352,  353,  354,  355,  356,  357
  358,  402,  403,  404,  405,  406,  407,  408,  409,  410,  411,  412,  413,  414,  415,  416
  417,  418,  419,  420,  421,  422,  423,  424,  425,  426,  427,  428,  429,  430,  431,  432
  433,  434,  435,  436,  437,  438,  439,  440,  441,  442,  443,  444,  445,  461,  462,  463
  464,  465,  466,  467,  468,  469,  470,  471,  472,  473,  474,  475,  476,  477,  478,  479
  480,  481,  482,  483,  484,  485,  486,  487,  488,  489,  490,  491,  492,  493,  494,  495
** ... 74 like lines cut
*Elset, elset=Set-1, instance=P210-1
     1,     2,     3,     4,     5,     6,     7,     8,     9,    10,    11,    12,    13,    14,    15,    16
    17,    18,    19,    20,    21,    22,    23,    24,    25,    26,    27,    28,    29,    30,    31,    32
    33,    34,    35,    36,    37,    38,    39,    40,    41,    42,    43,    44,    45,    46,    47,    48
    49,    50,    51,    52,    53,    54,    55,    56,    57,    58,    59,    60,    61,    62,    63,    64
    65,    66,    67,    68,    69,    70,    71,    72,    73,    74,    75,    76,    77,    78,    79,    80
    81,    82,    83,    84,    85,    86,    87,    88,    89,    90,    91,    92,    93,    94,    95,    96
    97,    98,    99,   100,   101,   102,   103,   104,   105,   106,   107,   108,   109,   110,   111,   112
   113,   114,   115,   116,   117,   118,   119,   225,   226,   227,   228,   229,   230,   231,   337,   338
   339,   340,   341,   342,   343,   449,   450,   451,   452,   453,   454,   455,   561,   562,   563,   564
   565,   566,   567,   673,   674,   675,   676,   677,   678,   679,   785,   786,   787,   788,   789,   790
   791,   897,   898,   899,   900,   901,   902,   903,  1009,  1010,  1011,  1012,  1013,  1014,  1015,  1121
  1122,  1123,  1124,  1125,  1126,  1127,  1233,  1234,  1235,  1236,  1237,  1238,  1239,  1345,  1346,  1347
  1348,  1349,  1350,  1351,  1457,  1458,  1459,  1460,  1461,  1462,  1463,  1569,  1570,  1571,  1572,  1573
  1574,  1575,  1681,  1682,  1683,  1684,  1685,  1686,  1687,  1793,  1794,  1795,  1796,  1797,  1798,  1799
  1905,  1906,  1907,  1908,  1909,  1910,  1911,  2017,  2018,  2019,  2020,  2021,  2022,  2023,  2129,  2130
  2131,  2132,  2133,  2134,  2135,  2241,  2242,  2243,  2244,  2245,  2246,  2247,  2353,  2354,  2355,  2356
  2357,  2358,  2359,  2465,  2466,  2467,  2468,  2469,  2470,  2471,  2577,  2578,  2579,  2580,  2581,  2582
  2583,  2689,  2690,  2691,  2692,  2693,  2694,  2695,  2801,  2802,  2803,  2804,  2805,  2806,  2807,  2808
  2809,  2810,  2811,  2812,  2813,  2814,  2815,  2816,  2817,  2818,  2819,  2820,  2821,  2822,  2823,  2824
  2825,  2826,  2827,  2828,  2829,  2830,  2831,  2832,  2833,  2834,  2835,  2836,  2837,  2838,  2839,  2840
** ... 64 like lines cut
*Nset, nset=Set-2, instance=P210-1
    2,    3,    5,    6,    9,   11,   19,   20,   23,   40,   41,   42,   43,   44,   45,   46
   47,   48,   49,   50,   51,   52,   53,   54,   82,   83,   84,   85,   86,   87,   88,   89
   90,   91,   92,   93,   94,   95,   96,  166,  167,  168,  169,  170,  171,  172,  173,  174
  175,  176,  177,  178,  179,  180,  181,  182,  183,  184,  185,  186,  187,  188,  189,  190
  191,  192,  193,  194,  195,  196,  197,  198,  199,  200,  201,  202,  203,  204,  205,  206
  207,  208,  209,  210,  211,  212,  213,  214,  215,  216,  217,  218,  219,  220,  221,  222
  223,  224,  225,  226,  227,  248,  249,  250,  251,  252,  253,  254,  255,  256,  257,  258
  259,  260,  261,  306,  307,  308,  309,  310,  311,  312,  313,  314,  315,  316,  317,  318
  319,  320,  321,  322,  323,  324,  325,  326,  327,  328,  329,  490,  491,  492,  493,  494
  495,  496,  497,  498,  499,  500,  501,  502,  503,  504,  505,  506,  507,  508,  509,  510
  544,  545,  546,  547,  548,  549,  550,  551,  552,  553,  554,  555,  556,  557,  558,  559
  560, 1235, 1236, 1237, 1238, 1239, 1240, 1241, 1242, 1243, 1244, 1245, 1246, 1247, 1248, 1249
 1250, 1251, 1252, 1253, 1254, 1255, 1256, 1257, 1258, 1259, 1260, 1261, 1262, 1263, 1264, 1265
 1266, 1267, 1268, 1269, 1270, 1271, 1272, 1273, 1274, 1275, 1276, 1277, 1278, 1279, 1280, 1281
 1282, 1283, 1284, 1285, 1286, 1287, 1288, 1289, 1290, 1291, 1292, 1293, 1294, 1295, 1296, 1297
 1298, 1299, 1300, 1301, 1302, 1303, 1304, 1305, 1306, 1307, 1308, 1309, 1310, 1311, 1312, 1313
 1314, 1315, 1316, 1317, 1318, 1319, 1320, 1321, 1322, 1323, 1324, 1325, 1326, 1327, 1328, 1329
 1330, 1331, 1332, 1333, 1334, 1335, 1336, 1337, 1338, 1339, 1340, 1341, 1342, 1343, 1344, 1345
 1346, 1347, 1348, 1349, 1350, 1351, 1352, 1353, 1354, 1355, 1356, 1357, 1358, 1359, 1360, 1361
 1362, 1363, 1364, 1365, 1366, 1367, 1368, 1369, 1370, 1371, 1372, 1373, 1374, 1375, 1376, 1377
** ... 40 like lines cut
*Elset, elset=Set-2, instance=P210-1
     7,    14,    21,    28,    35,    42,    49,    56,    63,    70,    77,    84,    91,    98,   105,   112
   119,   126,   133,   140,   147,   154,   161,   168,   175,   182,   189,   196,   203,   210,   217,   224
   231,   238,   245,   252,   259,   266,   273,   280,   287,   294,   301,   308,   315,   322,   329,   336
   343,   350,   357,   364,   371,   378,   385,   392,   399,   406,   413,   420,   427,   434,   441,   448
   455,   462,   469,   476,   483,   490,   497,   504,   511,   518,   525,   532,   539,   546,   553,   560
   567,   574,   581,   588,   595,   602,   609,   616,   623,   630,   637,   644,   651,   658,   665,   672
   679,   686,   693,   700,   707,   714,   721,   728,   735,   742,   749,   756,   763,   770,   777,   784
   791,   798,   805,   812,   819,   826,   833,   840,   847,   854,   861,   868,   875,   882,   889,   896
   903,   910,   917,   924,   931,   938,   945,   952,   959,   966,   973,   980,   987,   994,  1001,  1008
  1015,  1022,  1029,  1036,  1043,  1050,  1057,  1064,  1071,  1078,  1085,  1092,  1099,  1106,  1113,  1120
  1127,  1134,  1141,  1148,  1155,  1162,  1169,  1176,  1183,  1190,  1197,  1204,  1211,  1218,  1225,  1232
  1239,  1246,  1253,  1260,  1267,  1274,  1281,  1288,  1295,  1302,  1309,  1316,  1323,  1330,  1337,  1344
  1351,  1358,  1365,  1372,  1379,  1386,  1393,  1400,  1407,  1414,  1421,  1428,  1435,  1442,  1449,  1456
  1463,  1470,  1477,  1484,  1491,  1498,  1505,  1512,  1519,  1526,  1533,  1540,  1547,  1554,  1561,  1568
  1575,  1582,  1589,  1596,  1603,  1610,  1617,  1624,  1631,  1638,  1645,  1652,  1659,  1666,  1673,  1680
  1687,  1694,  1701,  1708,  1715,  1722,  1729,  1736,  1743,  1750,  1757,  1764,  1771,  1778,  1785,  1792
  1799,  1806,  1813,  1820,  1827,  1834,  1841,  1848,  1855,  1862,  1869,  1876,  1883,  1890,  1897,  1904
  1911,  1918,  1925,  1932,  1939,  1946,  1953,  1960,  1967,  1974,  1981,  1988,  1995,  2002,  2009,  2016
  2023,  2030,  2037,  2044,  2051,  2058,  2065,  2072,  2079,  2086,  2093,  2100,  2107,  2114,  2121,  2128
  2135,  2142,  2149,  2156,  2163,  2170,  2177,  2184,  2191,  2198,  2205,  2212,  2219,  2226,  2233,  2240
** ... 37 like lines cut
*Elset, elset=_Surf-1_S4, internal, instance=P210-1, generate
 5431,  7675,     6
*Elset, elset=_Surf-1_S3, internal, instance=P210-1
  7676,  7677,  7678,  7679,  7680,  7681,  7682,  7683,  7684,  7685,  7686,  7687,  7688,  7689,  7690,  7691
  7772,  7773,  7774,  7775,  7776,  7777,  7778,  7779,  7780,  7781,  7782,  7783,  7784,  7785,  7786,  7787
  7868,  7869,  7870,  7871,  7872,  7873,  7874,  7875,  7876,  7877,  7878,  7879,  7880,  7881,  7882,  7883
  7964,  7965,  7966,  7967,  7968,  7969,  7970,  7971,  7972,  7973,  7974,  7975,  7976,  7977,  7978,  7979
  8060,  8061,  8062,  8063,  8064,  8065,  8066,  8067,  8068,  8069,  8070,  8071,  8072,  8073,  8074,  8075
  8156,  8157,  8158,  8159,  8160,  8161,  8162,  8163,  8164,  8165,  8166,  8167,  8168,  8169,  8170,  8171
  8252,  8253,  8254,  8255,  8256,  8257,  8258,  8259,  8260,  8261,  8262,  8263,  8264,  8265,  8266,  8267
  8348,  8349,  8350,  8351,  8352,  8353,  8354,  8355,  8356,  8357,  8358,  8359,  8360,  8361,  8362,  8363
  8444,  8445,  8446,  8447,  8448,  8449,  8450,  8451,  8452,  8453,  8454,  8455,  8456,  8457,  8458,  8459
  8540,  8541,  8542,  8543,  8544,  8545,  8546,  8547,  8548,  8549,  8550,  8551,  8552,  8553,  8554,  8555
  8636,  8637,  8638,  8639,  8640,  8641,  8642,  8643,  8644,  8645,  8646,  8647,  8648,  8649,  8650,  8651
  8732,  8733,  8734,  8735,  8736,  8737,  8738,  8739,  8740,  8741,  8742,  8743,  8744,  8745,  8746,  8747
  8828,  8829,  8830,  8831,  8832,  8833,  8834,  8835,  8836,  8837,  8838,  8839,  8840,  8841,  8842,  8843
  8924,  8925,  8926,  8927,  8928,  8929,  8930,  8931,  8932,  8933,  8934,  8935,  8936,  8937,  8938,  8939
  9020,  9021,  9022,  9023,  9024,  9025,  9026,  9027,  9028,  9029,  9030,  9031,  9032,  9033,  9034,  9035
  9116,  9117,  9118,  9119,  9120,  9121,  9122,  9123,  9124,  9125,  9126,  9127,  9128,  9129,  9130,  9131
  9212,  9213,  9214,  9215,  9216,  9217,  9218,  9219,  9220,  9221,  9222,  9223,  9224,  9225,  9226,  9227
  9308,  9309,  9310,  9311,  9312,  9313,  9314,  9315,  9316,  9317,  9318,  9319,  9320,  9321,  9322,  9323
  9404,  9405,  9406,  9407,  9408,  9409,  9410,  9411,  9412,  9413,  9414,  9415,  9416,  9417,  9418,  9419
  9500,  9501,  9502,  9503,  9504,  9505,  9506,  9507,  9508,  9509,  9510,  9511,  9512,  9513,  9514,  9515
** ... 7 like lines cut
*Surface, type=ELEMENT, name=Surf-1
_Surf-1_S4, S4
_Surf-1_S3, S3
*Elset, elset=_Surf-2_S4, internal, instance=P210-1, generate
 5431,  7675,     6
*Elset, elset=_Surf-2_S3, internal, instance=P210-1
  7676,  7677,  7678,  7679,  7680,  7681,  7682,  7683,  7684,  7685,  7686,  7687,  7688,  7689,  7690,  7691
  7772,  7773,  7774,  7775,  7776,  7777,  7778,  7779,  7780,  7781,  7782,  7783,  7784,  7785,  7786,  7787
  7868,  7869,  7870,  7871,  7872,  7873,  7874,  7875,  7876,  7877,  7878,  7879,  7880,  7881,  7882,  7883
  7964,  7965,  7966,  7967,  7968,  7969,  7970,  7971,  7972,  7973,  7974,  7975,  7976,  7977,  7978,  7979
  8060,  8061,  8062,  8063,  8064,  8065,  8066,  8067,  8068,  8069,  8070,  8071,  8072,  8073,  8074,  8075
  8156,  8157,  8158,  8159,  8160,  8161,  8162,  8163,  8164,  8165,  8166,  8167,  8168,  8169,  8170,  8171
  8252,  8253,  8254,  8255,  8256,  8257,  8258,  8259,  8260,  8261,  8262,  8263,  8264,  8265,  8266,  8267
  8348,  8349,  8350,  8351,  8352,  8353,  8354,  8355,  8356,  8357,  8358,  8359,  8360,  8361,  8362,  8363
  8444,  8445,  8446,  8447,  8448,  8449,  8450,  8451,  8452,  8453,  8454,  8455,  8456,  8457,  8458,  8459
  8540,  8541,  8542,  8543,  8544,  8545,  8546,  8547,  8548,  8549,  8550,  8551,  8552,  8553,  8554,  8555
  8636,  8637,  8638,  8639,  8640,  8641,  8642,  8643,  8644,  8645,  8646,  8647,  8648,  8649,  8650,  8651
  8732,  8733,  8734,  8735,  8736,  8737,  8738,  8739,  8740,  8741,  8742,  8743,  8744,  8745,  8746,  8747
  8828,  8829,  8830,  8831,  8832,  8833,  8834,  8835,  8836,  8837,  8838,  8839,  8840,  8841,  8842,  8843
  8924,  8925,  8926,  8927,  8928,  8929,  8930,  8931,  8932,  8933,  8934,  8935,  8936,  8937,  8938,  8939
  9020,  9021,  9022,  9023,  9024,  9025,  9026,  9027,  9028,  9029,  9030,  9031,  9032,  9033,  9034,  9035
  9116,  9117,  9118,  9119,  9120,  9121,  9122,  9123,  9124,  9125,  9126,  9127,  9128,  9129,  9130,  9131
  9212,  9213,  9214,  9215,  9216,  9217,  9218,  9219,  9220,  9221,  9222,  9223,  9224,  9225,  9226,  9227
  9308,  9309,  9310,  9311,  9312,  9313,  9314,  9315,  9316,  9317,  9318,  9319,  9320,  9321,  9322,  9323
  9404,  9405,  9406,  9407,  9408,  9409,  9410,  9411,  9412,  9413,  9414,  9415,  9416,  9417,  9418,  9419
  9500,  9501,  9502,  9503,  9504,  9505,  9506,  9507,  9508,  9509,  9510,  9511,  9512,  9513,  9514,  9515
** ... 7 like lines cut
*Surface, type=ELEMENT, name=Surf-2
_Surf-2_S4, S4
_Surf-2_S3, S3
*End Assembly
*Amplitude, name=Amp-1
            0.1,           514.8,             0.2,          1029.6,             0.3,          1544.4,             0.4,          2059.2
            0.5,           2574.,             0.6,          3088.8,             0.7,          3603.6,             0.8,          4118.4
            0.9,          4633.2,              1.,           5148.
** 
** MATERIALS
** 
*Material, name=Material-1
*Elastic
 31622.8, 0.2
** ----------------------------------------------------------------
** 
** STEP: Step-1
** 
*Step, name=Step-1, nlgeom=NO
*Static
0.1, 1., 1e-05, 1.
** 
** BOUNDARY CONDITIONS
** 
** Name: BC-1 Type: Symmetry/Antisymmetry/Encastre
*Boundary
Set-1, ZASYMM
** Name: BC-2 Type: Symmetry/Antisymmetry/Encastre
*Boundary
Set-2, ENCASTRE
** 
** LOADS
** 
** Name: Load-1   Type: Pressure
*Dsload
Surf-2, P, 0.8
** 
** OUTPUT REQUESTS
** 
*Restart, write, frequency=0
** 
** FIELD OUTPUT: F-Output-2
** 
*Output, field
*Node Output
U, 
*Element Output, directions=YES
E, S
** 
** FIELD OUTPUT: F-Output-1
** 
*Output, field, variable=PRESELECT
** 
** HISTORY OUTPUT: H-Output-1
** 
*Output, history, variable=PRESELECT
*End Step
