*Heading
** Job name: 220S Model name: 220
** Generated by: Abaqus/CAE 2018
*Preprint, echo=NO, model=NO, history=NO, contact=NO
**
** PARTS
**
*Part, name=P220
*End Part
**  
**
** ASSEMBLY
**
*Assembly, name=Assembly
**  
*Instance, name=P220-1, part=P220
*Node
      1,         250.,           0.,          50.
      2,         250.,           0.,           0.
      3,         250.,   129.032257,           0.
      4,         250.,   129.032257,          50.
      5,    16.666666,           0.,           0.
      6,    16.666666,   129.032257,           0.
      7,   12.9483252,   129.032242,   54.9241524
      8,   13.7021255,           0.,   54.7231941
      9,         250.,         250.,           0.
     10,         250.,         250.,          50.
     11,    16.666666,         250.,           0.
     12,   13.7338104,         250.,   54.5179977
     13,         250.,         250.,         100.
     14,         250.,   129.032257,         100.
     15,   37.5862083,         250.,         100.
     16,   37.5862083,   129.032257,         100.
     17,         250.,           0.,         100.
     18,   37.5862083,           0.,         100.
     19,           0.,           0.,           0.
     20,           0.,   129.032257,           0.
** ... 12780 like lines cut
*Element, type=C3D8R
    1,   141,  1655,  4826,   845,     1,    34,   695,    73
    2,  1655,  1656,  4827,  4826,    34,    35,   696,   695
    3,  1656,  1657,  4828,  4827,    35,    36,   697,   696
    4,  1657,  1658,  4829,  4828,    36,    37,   698,   697
    5,  1658,  1659,  4830,  4829,    37,    38,   699,   698
    6,  1659,   195,  1250,  4830,    38,     2,    39,   699
    7,   845,  4826,  4831,   846,    73,   695,   700,    72
    8,  4826,  4827,  4832,  4831,   695,   696,   701,   700
    9,  4827,  4828,  4833,  4832,   696,   697,   702,   701
   10,  4828,  4829,  4834,  4833,   697,   698,   703,   702
   11,  4829,  4830,  4835,  4834,   698,   699,   704,   703
   12,  4830,  1250,  1251,  4835,   699,    39,    40,   704
   13,   846,  4831,  4836,   847,    72,   700,   705,    71
   14,  4831,  4832,  4837,  4836,   700,   701,   706,   705
   15,  4832,  4833,  4838,  4837,   701,   702,   707,   706
   16,  4833,  4834,  4839,  4838,   702,   703,   708,   707
   17,  4834,  4835,  4840,  4839,   703,   704,   709,   708
   18,  4835,  1251,  1252,  4840,   704,    40,    41,   709
   19,   847,  4836,  4841,   848,    71,   705,   710,    70
   20,  4836,  4837,  4842,  4841,   705,   706,   711,   710
** ... 11016 like lines cut
*Nset, nset=Set-1, generate
     1,  12800,      1
*Elset, elset=Set-1, generate
     1,  11036,      1
** Section: Section-1
*Solid Section, elset=Set-1, material=Material-1
,
*End Instance
**  
*Nset, nset=Set-1, instance=P220-1
    1,    2,    3,    4,    5,    8,    9,   10,   11,   12,   13,   14,   15,   17,   18,   19
   20,   21,   22,   23,   24,   25,   26,   29,   30,   31,   32,   33,   34,   35,   36,   37
   38,   39,   40,   41,   42,   43,   44,   45,   46,   47,   48,   49,   50,   51,   52,   53
   54,   55,   56,   57,   58,   59,   60,   61,   62,   63,   64,   65,   66,   67,   68,   69
   70,   71,   72,   73,   74,   75,   76,   77,   78,  141,  142,  143,  144,  145,  146,  147
  148,  149,  150,  151,  152,  153,  154,  155,  156,  157,  158,  159,  160,  161,  162,  163
  164,  165,  166,  167,  195,  196,  197,  198,  199,  200,  201,  202,  203,  204,  205,  206
  207,  208,  209,  210,  211,  212,  213,  214,  215,  216,  217,  218,  219,  220,  221,  222
  223,  224,  225,  226,  227,  228,  229,  230,  231,  232,  233,  234,  235,  236,  237,  238
  239,  240,  241,  242,  243,  244,  245,  246,  247,  248,  249,  250,  251,  252,  253,  254
  269,  270,  271,  272,  273,  288,  289,  290,  291,  292,  293,  294,  295,  296,  297,  298
  299,  300,  301,  302,  303,  304,  305,  306,  307,  308,  309,  310,  311,  312,  313,  314
  315,  316,  317,  318,  319,  320,  321,  322,  323,  324,  325,  326,  327,  328,  329,  330
  331,  332,  333,  334,  335,  336,  337,  338,  339,  340,  341,  342,  343,  344,  345,  346
  347,  348,  349,  350,  351,  352,  353,  354,  355,  356,  357,  358,  359,  360,  361,  362
  363,  364,  365,  366,  367,  368,  369,  370,  417,  418,  419,  420,  421,  422,  423,  424
  425,  426,  427,  428,  429,  430,  431,  432,  433,  434,  435,  436,  437,  438,  439,  440
  441,  442,  443,  444,  445,  446,  447,  448,  449,  450,  451,  452,  453,  454,  455,  456
  457,  458,  459,  460,  461,  462,  463,  479,  480,  481,  482,  483,  484,  485,  486,  487
  488,  489,  490,  491,  492,  493,  494,  495,  496,  497,  498,  499,  500,  501,  502,  503
** ... 70 like lines cut
*Elset, elset=Set-1, instance=P220-1
     1,     2,     3,     4,     5,     6,     7,     8,     9,    10,    11,    12,    13,    14,    15,    16
    17,    18,    19,    20,    21,    22,    23,    24,    25,    26,    27,    28,    29,    30,    31,    32
    33,    34,    35,    36,    37,    38,    39,    40,    41,    42,    43,    44,    45,    46,    47,    48
    49,    50,    51,    52,    53,    54,    55,    56,    57,    58,    59,    60,    61,    62,    63,    64
    65,    66,    67,    68,    69,    70,    71,    72,    73,    74,    75,    76,    77,    78,    79,    80
    81,    82,    83,    84,    85,    86,    87,    88,    89,    90,    91,    92,    93,    94,    95,    96
    97,    98,    99,   100,   101,   102,   193,   194,   195,   196,   197,   198,   289,   290,   291,   292
   293,   294,   385,   386,   387,   388,   389,   390,   481,   482,   483,   484,   485,   486,   577,   578
   579,   580,   581,   582,   673,   674,   675,   676,   677,   678,   769,   770,   771,   772,   773,   774
   865,   866,   867,   868,   869,   870,   961,   962,   963,   964,   965,   966,  1057,  1058,  1059,  1060
  1061,  1062,  1153,  1154,  1155,  1156,  1157,  1158,  1249,  1250,  1251,  1252,  1253,  1254,  1345,  1346
  1347,  1348,  1349,  1350,  1441,  1442,  1443,  1444,  1445,  1446,  1537,  1538,  1539,  1540,  1541,  1542
  1633,  1634,  1635,  1636,  1637,  1638,  1729,  1730,  1731,  1732,  1733,  1734,  1825,  1826,  1827,  1828
  1829,  1830,  1921,  1922,  1923,  1924,  1925,  1926,  2017,  2018,  2019,  2020,  2021,  2022,  2113,  2114
  2115,  2116,  2117,  2118,  2209,  2210,  2211,  2212,  2213,  2214,  2305,  2306,  2307,  2308,  2309,  2310
  2401,  2402,  2403,  2404,  2405,  2406,  2497,  2498,  2499,  2500,  2501,  2502,  2593,  2594,  2595,  2596
  2597,  2598,  2689,  2690,  2691,  2692,  2693,  2694,  2695,  2696,  2697,  2698,  2699,  2700,  2701,  2702
  2703,  2704,  2705,  2706,  2707,  2708,  2709,  2710,  2711,  2712,  2713,  2714,  2715,  2716,  2717,  2718
  2719,  2720,  2721,  2722,  2723,  2724,  2725,  2726,  2727,  2728,  2729,  2730,  2731,  2732,  2733,  2734
  2735,  2736,  2737,  2738,  2739,  2740,  2741,  2742,  2743,  2744,  2745,  2746,  2747,  2748,  2749,  2750
** ... 59 like lines cut
*Nset, nset=Set-2, instance=P220-1
    2,    3,    5,    6,    9,   11,   19,   20,   23,   39,   40,   41,   42,   43,   44,   45
   46,   47,   48,   49,   50,   51,   52,   53,   79,   80,   81,   82,   83,   84,   85,   86
   87,   88,   89,   90,   91,   92,   93,  168,  169,  170,  171,  172,  173,  174,  175,  176
  177,  178,  179,  180,  181,  182,  183,  184,  185,  186,  187,  188,  189,  190,  191,  192
  193,  194,  195,  196,  197,  198,  199,  200,  201,  202,  203,  204,  205,  206,  207,  208
  209,  210,  211,  212,  213,  214,  215,  216,  217,  218,  219,  220,  221,  222,  223,  224
  225,  226,  227,  228,  229,  230,  231,  232,  233,  234,  235,  255,  256,  257,  258,  259
  260,  261,  262,  263,  264,  265,  266,  267,  268,  315,  316,  317,  318,  319,  320,  321
  322,  323,  324,  325,  326,  327,  328,  329,  330,  331,  332,  333,  334,  335,  336,  337
  338,  339,  340,  341,  511,  512,  513,  514,  515,  516,  517,  518,  519,  520,  521,  522
  523,  524,  525,  526,  527,  555,  556,  557,  558,  559,  560,  561,  562,  563,  564,  565
  566,  567,  568,  569, 1250, 1251, 1252, 1253, 1254, 1255, 1256, 1257, 1258, 1259, 1260, 1261
 1262, 1263, 1264, 1265, 1266, 1267, 1268, 1269, 1270, 1271, 1272, 1273, 1274, 1275, 1276, 1277
 1278, 1279, 1280, 1281, 1282, 1283, 1284, 1285, 1286, 1287, 1288, 1289, 1290, 1291, 1292, 1293
 1294, 1295, 1296, 1297, 1298, 1299, 1300, 1301, 1302, 1303, 1304, 1305, 1306, 1307, 1308, 1309
 1310, 1311, 1312, 1313, 1314, 1315, 1316, 1317, 1318, 1319, 1320, 1321, 1322, 1323, 1324, 1325
 1326, 1327, 1328, 1329, 1330, 1331, 1332, 1333, 1334, 1335, 1336, 1337, 1338, 1339, 1340, 1341
 1342, 1343, 1344, 1345, 1346, 1347, 1348, 1349, 1350, 1351, 1352, 1353, 1354, 1355, 1356, 1357
 1358, 1359, 1360, 1361, 1362, 1363, 1364, 1365, 1366, 1367, 1368, 1369, 1370, 1371, 1372, 1373
 1374, 1375, 1376, 1377, 1378, 1379, 1380, 1381, 1382, 1383, 1384, 1385, 1386, 1387, 1388, 1389
** ... 42 like lines cut
*Elset, elset=Set-2, instance=P220-1
     6,    12,    18,    24,    30,    36,    42,    48,    54,    60,    66,    72,    78,    84,    90,    96
   102,   108,   114,   120,   126,   132,   138,   144,   150,   156,   162,   168,   174,   180,   186,   192
   198,   204,   210,   216,   222,   228,   234,   240,   246,   252,   258,   264,   270,   276,   282,   288
   294,   300,   306,   312,   318,   324,   330,   336,   342,   348,   354,   360,   366,   372,   378,   384
   390,   396,   402,   408,   414,   420,   426,   432,   438,   444,   450,   456,   462,   468,   474,   480
   486,   492,   498,   504,   510,   516,   522,   528,   534,   540,   546,   552,   558,   564,   570,   576
   582,   588,   594,   600,   606,   612,   618,   624,   630,   636,   642,   648,   654,   660,   666,   672
   678,   684,   690,   696,   702,   708,   714,   720,   726,   732,   738,   744,   750,   756,   762,   768
   774,   780,   786,   792,   798,   804,   810,   816,   822,   828,   834,   840,   846,   852,   858,   864
   870,   876,   882,   888,   894,   900,   906,   912,   918,   924,   930,   936,   942,   948,   954,   960
   966,   972,   978,   984,   990,   996,  1002,  1008,  1014,  1020,  1026,  1032,  1038,  1044,  1050,  1056
  1062,  1068,  1074,  1080,  1086,  1092,  1098,  1104,  1110,  1116,  1122,  1128,  1134,  1140,  1146,  1152
  1158,  1164,  1170,  1176,  1182,  1188,  1194,  1200,  1206,  1212,  1218,  1224,  1230,  1236,  1242,  1248
  1254,  1260,  1266,  1272,  1278,  1284,  1290,  1296,  1302,  1308,  1314,  1320,  1326,  1332,  1338,  1344
  1350,  1356,  1362,  1368,  1374,  1380,  1386,  1392,  1398,  1404,  1410,  1416,  1422,  1428,  1434,  1440
  1446,  1452,  1458,  1464,  1470,  1476,  1482,  1488,  1494,  1500,  1506,  1512,  1518,  1524,  1530,  1536
  1542,  1548,  1554,  1560,  1566,  1572,  1578,  1584,  1590,  1596,  1602,  1608,  1614,  1620,  1626,  1632
  1638,  1644,  1650,  1656,  1662,  1668,  1674,  1680,  1686,  1692,  1698,  1704,  1710,  1716,  1722,  1728
  1734,  1740,  1746,  1752,  1758,  1764,  1770,  1776,  1782,  1788,  1794,  1800,  1806,  1812,  1818,  1824
  1830,  1836,  1842,  1848,  1854,  1860,  1866,  1872,  1878,  1884,  1890,  1896,  1902,  1908,  1914,  1920
** ... 39 like lines cut
*Elset, elset=_Surf-1_S4, internal, instance=P220-1, generate
 5214,  7728,     6
*Elset, elset=_Surf-1_S3, internal, instance=P220-1
  7729,  7730,  7731,  7732,  7733,  7734,  7735,  7736,  7737,  7738,  7739,  7740,  7741,  7742,  7743,  7744
  7825,  7826,  7827,  7828,  7829,  7830,  7831,  7832,  7833,  7834,  7835,  7836,  7837,  7838,  7839,  7840
  7921,  7922,  7923,  7924,  7925,  7926,  7927,  7928,  7929,  7930,  7931,  7932,  7933,  7934,  7935,  7936
  8017,  8018,  8019,  8020,  8021,  8022,  8023,  8024,  8025,  8026,  8027,  8028,  8029,  8030,  8031,  8032
  8113,  8114,  8115,  8116,  8117,  8118,  8119,  8120,  8121,  8122,  8123,  8124,  8125,  8126,  8127,  8128
  8209,  8210,  8211,  8212,  8213,  8214,  8215,  8216,  8217,  8218,  8219,  8220,  8221,  8222,  8223,  8224
  8305,  8306,  8307,  8308,  8309,  8310,  8311,  8312,  8313,  8314,  8315,  8316,  8317,  8318,  8319,  8320
  8401,  8402,  8403,  8404,  8405,  8406,  8407,  8408,  8409,  8410,  8411,  8412,  8413,  8414,  8415,  8416
  8497,  8498,  8499,  8500,  8501,  8502,  8503,  8504,  8505,  8506,  8507,  8508,  8509,  8510,  8511,  8512
  8593,  8594,  8595,  8596,  8597,  8598,  8599,  8600,  8601,  8602,  8603,  8604,  8605,  8606,  8607,  8608
  8689,  8690,  8691,  8692,  8693,  8694,  8695,  8696,  8697,  8698,  8699,  8700,  8701,  8702,  8703,  8704
  8785,  8786,  8787,  8788,  8789,  8790,  8791,  8792,  8793,  8794,  8795,  8796,  8797,  8798,  8799,  8800
  8881,  8882,  8883,  8884,  8885,  8886,  8887,  8888,  8889,  8890,  8891,  8892,  8893,  8894,  8895,  8896
  8977,  8978,  8979,  8980,  8981,  8982,  8983,  8984,  8985,  8986,  8987,  8988,  8989,  8990,  8991,  8992
  9073,  9074,  9075,  9076,  9077,  9078,  9079,  9080,  9081,  9082,  9083,  9084,  9085,  9086,  9087,  9088
  9169,  9170,  9171,  9172,  9173,  9174,  9175,  9176,  9177,  9178,  9179,  9180,  9181,  9182,  9183,  9184
  9265,  9266,  9267,  9268,  9269,  9270,  9271,  9272,  9273,  9274,  9275,  9276,  9277,  9278,  9279,  9280
  9361,  9362,  9363,  9364,  9365,  9366,  9367,  9368,  9369,  9370,  9371,  9372,  9373,  9374,  9375,  9376
  9457,  9458,  9459,  9460,  9461,  9462,  9463,  9464,  9465,  9466,  9467,  9468,  9469,  9470,  9471,  9472
  9553,  9554,  9555,  9556,  9557,  9558,  9559,  9560,  9561,  9562,  9563,  9564,  9565,  9566,  9567,  9568
** ... 10 like lines cut
*Surface, type=ELEMENT, name=Surf-1
_Surf-1_S4, S4
_Surf-1_S3, S3
*Elset, elset=_Surf-2_S4, internal, instance=P220-1, generate
 5214,  7728,     6
*Elset, elset=_Surf-2_S3, internal, instance=P220-1
  7729,  7730,  7731,  7732,  7733,  7734,  7735,  7736,  7737,  7738,  7739,  7740,  7741,  7742,  7743,  7744
  7825,  7826,  7827,  7828,  7829,  7830,  7831,  7832,  7833,  7834,  7835,  7836,  7837,  7838,  7839,  7840
  7921,  7922,  7923,  7924,  7925,  7926,  7927,  7928,  7929,  7930,  7931,  7932,  7933,  7934,  7935,  7936
  8017,  8018,  8019,  8020,  8021,  8022,  8023,  8024,  8025,  8026,  8027,  8028,  8029,  8030,  8031,  8032
  8113,  8114,  8115,  8116,  8117,  8118,  8119,  8120,  8121,  8122,  8123,  8124,  8125,  8126,  8127,  8128
  8209,  8210,  8211,  8212,  8213,  8214,  8215,  8216,  8217,  8218,  8219,  8220,  8221,  8222,  8223,  8224
  8305,  8306,  8307,  8308,  8309,  8310,  8311,  8312,  8313,  8314,  8315,  8316,  8317,  8318,  8319,  8320
  8401,  8402,  8403,  8404,  8405,  8406,  8407,  8408,  8409,  8410,  8411,  8412,  8413,  8414,  8415,  8416
  8497,  8498,  8499,  8500,  8501,  8502,  8503,  8504,  8505,  8506,  8507,  8508,  8509,  8510,  8511,  8512
  8593,  8594,  8595,  8596,  8597,  8598,  8599,  8600,  8601,  8602,  8603,  8604,  8605,  8606,  8607,  8608
  8689,  8690,  8691,  8692,  8693,  8694,  8695,  8696,  8697,  8698,  8699,  8700,  8701,  8702,  8703,  8704
  8785,  8786,  8787,  8788,  8789,  8790,  8791,  8792,  8793,  8794,  8795,  8796,  8797,  8798,  8799,  8800
  8881,  8882,  8883,  8884,  8885,  8886,  8887,  8888,  8889,  8890,  8891,  8892,  8893,  8894,  8895,  8896
  8977,  8978,  8979,  8980,  8981,  8982,  8983,  8984,  8985,  8986,  8987,  8988,  8989,  8990,  8991,  8992
  9073,  9074,  9075,  9076,  9077,  9078,  9079,  9080,  9081,  9082,  9083,  9084,  9085,  9086,  9087,  9088
  9169,  9170,  9171,  9172,  9173,  9174,  9175,  9176,  9177,  9178,  9179,  9180,  9181,  9182,  9183,  9184
  9265,  9266,  9267,  9268,  9269,  9270,  9271,  9272,  9273,  9274,  9275,  9276,  9277,  9278,  9279,  9280
  9361,  9362,  9363,  9364,  9365,  9366,  9367,  9368,  9369,  9370,  9371,  9372,  9373,  9374,  9375,  9376
  9457,  9458,  9459,  9460,  9461,  9462,  9463,  9464,  9465,  9466,  9467,  9468,  9469,  9470,  9471,  9472
  9553,  9554,  9555,  9556,  9557,  9558,  9559,  9560,  9561,  9562,  9563,  9564,  9565,  9566,  9567,  9568
** ... 10 like lines cut
*Surface, type=ELEMENT, name=Surf-2
_Surf-2_S4, S4
_Surf-2_S3, S3
*End Assembly
*Amplitude, name=Amp-1
            0.1,           514.8,             0.2,          1029.6,             0.3,          1544.4,             0.4,          2059.2
            0.5,           2574.,             0.6,          3088.8,             0.7,          3603.6,             0.8,          4118.4
            0.9,          4633.2,              1.,           5148.
** 
** MATERIALS
** 
*Material, name=Material-1
*Elastic
 31622.8, 0.2
** ----------------------------------------------------------------
** 
** STEP: Step-1
** 
*Step, name=Step-1, nlgeom=NO
*Static
0.1, 1., 1e-05, 1.
** 
** BOUNDARY CONDITIONS
** 
** Name: BC-1 Type: Symmetry/Antisymmetry/Encastre
*Boundary
Set-1, ZASYMM
** Name: BC-2 Type: Symmetry/Antisymmetry/Encastre
*Boundary
Set-2, ENCASTRE
** 
** LOADS
** 
** Name: Load-1   Type: Pressure
*Dsload
Surf-2, P, 0.8
** 
** OUTPUT REQUESTS
** 
*Restart, write, frequency=0
** 
** FIELD OUTPUT: F-Output-2
** 
*Output, field
*Node Output
U, 
*Element Output, directions=YES
E, S
** 
** FIELD OUTPUT: F-Output-1
** 
*Output, field, variable=PRESELECT
** 
** HISTORY OUTPUT: H-Output-1
** 
*Output, history, variable=PRESELECT
*End Step
