*Heading
** Job name: 240 Model name: 240
** Generated by: Abaqus/CAE 2018
*Preprint, echo=NO, model=NO, history=NO, contact=NO
**
** PARTS
**
*Part, name=P240
*End Part
**  
**
** ASSEMBLY
**
*Assembly, name=Assembly
**  
*Instance, name=P240-1, part=P240
*Node
      1,         240.,    61.064064,         100.
      2,   268.467865,         77.5,         100.
      3,   268.467865,        232.5,         100.
      4,         240.,   248.935928,         100.
      5,   134.233932,           0.,   77.9654007
      6,           0.,         77.5,          50.
      7,   134.233932,         310.,   77.9654007
      8,           0.,        232.5,          50.
      9,         240.,   238.875443,         100.
     10,         240.,   229.986282,         100.
     11,         240.,   220.985565,         100.
     12,         240.,   211.688766,         100.
     13,         240.,   202.275452,         100.
     14,         240.,   192.888596,         100.
     15,         240.,   183.419159,         100.
     16,         240.,   174.088318,         100.
     17,         240.,   164.982254,         100.
     18,         240.,   156.009247,         100.
     19,         240.,   147.148224,         100.
     20,         240.,   138.404724,         100.
** ... 9418 like lines cut
*Element, type=C3D8R
   1,   28,  139,   29,    1,  886,  997,  887,  859
   2,  139,  140,   30,   29,  997,  998,  888,  887
   3,  140,  141,   31,   30,  998,  999,  889,  888
   4,  141,   32,    2,   31,  999,  890,  860,  889
   5,   27,  142,  139,   28,  885, 1000,  997,  886
   6,  142,  143,  140,  139, 1000, 1001,  998,  997
   7,  143,  144,  141,  140, 1001, 1002,  999,  998
   8,  144,   33,   32,  141, 1002,  891,  890,  999
   9,   26,  145,  142,   27,  884, 1003, 1000,  885
  10,  145,  146,  143,  142, 1003, 1004, 1001, 1000
  11,  146,  147,  144,  143, 1004, 1005, 1002, 1001
  12,  147,   34,   33,  144, 1005,  892,  891, 1002
  13,   25,  148,  145,   26,  883, 1006, 1003,  884
  14,  148,  149,  146,  145, 1006, 1007, 1004, 1003
  15,  149,  150,  147,  146, 1007, 1008, 1005, 1004
  16,  150,   35,   34,  147, 1008,  893,  892, 1005
  17,   24,  151,  148,   25,  882, 1009, 1006,  883
  18,  151,  152,  149,  148, 1009, 1010, 1007, 1006
  19,  152,  153,  150,  149, 1010, 1011, 1008, 1007
  20,  153,   36,   35,  150, 1011,  894,  893, 1008
** ... 7960 like lines cut
*Nset, nset=Set-1, generate
    1,  9438,     1
*Elset, elset=Set-1, generate
    1,  7980,     1
** Section: Section-1
*Solid Section, elset=Set-1, material=Material-1
,
*End Instance
**  
*Nset, nset=Set-1, instance=P240-1
    1,    2,    3,    4,    5,    6,    7,    8,   29,   30,   31,   32,   33,   34,   35,   36
   37,   38,   39,   40,   41,   42,   43,   44,   45,   46,   47,   48,   49,   50,   51,   52
   53,   54,   55,   56,   57,   58,   59,   60,   61,   62,   63,   64,   65,   66,   67,   68
   69,   70,   71,   72,   73,   74,   75,   76,   77,   78,   79,   80,   81,   82,   83,   84
   85,   86,   87,   88,   89,   90,   91,   92,   93,   94,   95,   96,   97,   98,   99,  100
  101,  102,  103,  104,  105,  106,  107,  108,  109,  110,  111,  112,  113,  114,  115,  116
  117,  118,  119,  120,  121,  122,  123,  124,  125,  126,  127,  128,  129,  130,  131,  132
  133,  134,  135,  136,  137,  138,  859,  860,  861,  862,  863,  864,  865,  866,  887,  888
  889,  890,  891,  892,  893,  894,  895,  896,  897,  898,  899,  900,  901,  902,  903,  904
  905,  906,  907,  908,  909,  910,  911,  912,  913,  914,  915,  916,  917,  918,  919,  920
  921,  922,  923,  924,  925,  926,  927,  928,  929,  930,  931,  932,  933,  934,  935,  936
  937,  938,  939,  940,  941,  942,  943,  944,  945,  946,  947,  948,  949,  950,  951,  952
  953,  954,  955,  956,  957,  958,  959,  960,  961,  962,  963,  964,  965,  966,  967,  968
  969,  970,  971,  972,  973,  974,  975,  976,  977,  978,  979,  980,  981,  982,  983,  984
  985,  986,  987,  988,  989,  990,  991,  992,  993,  994,  995,  996, 1717, 1718, 1719, 1720
 1721, 1722, 1723, 1724, 1745, 1746, 1747, 1748, 1749, 1750, 1751, 1752, 1753, 1754, 1755, 1756
 1757, 1758, 1759, 1760, 1761, 1762, 1763, 1764, 1765, 1766, 1767, 1768, 1769, 1770, 1771, 1772
 1773, 1774, 1775, 1776, 1777, 1778, 1779, 1780, 1781, 1782, 1783, 1784, 1785, 1786, 1787, 1788
 1789, 1790, 1791, 1792, 1793, 1794, 1795, 1796, 1797, 1798, 1799, 1800, 1801, 1802, 1803, 1804
 1805, 1806, 1807, 1808, 1809, 1810, 1811, 1812, 1813, 1814, 1815, 1816, 1817, 1818, 1819, 1820
** ... 62 like lines cut
*Elset, elset=Set-1, instance=P240-1
    1,    2,    3,    4,    8,   12,   16,   20,   24,   28,   32,   36,   40,   44,   48,   52
   56,   60,   64,   68,   72,   76,   80,   81,   82,   83,   84,  118,  152,  186,  220,  254
  288,  322,  356,  390,  424,  458,  492,  493,  494,  495,  496,  497,  498,  499,  500,  501
  502,  503,  504,  505,  506,  507,  508,  509,  510,  511,  512,  513,  514,  515,  516,  517
  518,  519,  520,  521,  522,  523,  524,  525,  526,  527,  561,  595,  629,  663,  697,  731
  765,  766,  767,  768,  769,  770,  771,  772,  773,  774,  775,  776,  777,  778,  779,  780
  781,  782,  783,  784,  785,  786,  787,  788,  789,  790,  791,  792,  793,  794,  795,  796
  797,  798,  799,  800,  801,  802,  806,  810,  814,  818,  822,  826,  830,  834,  838,  842
  846,  850,  854,  858,  862,  866,  870,  874,  878,  879,  880,  881,  882,  916,  950,  984
 1018, 1052, 1086, 1120, 1154, 1188, 1222, 1256, 1290, 1291, 1292, 1293, 1294, 1295, 1296, 1297
 1298, 1299, 1300, 1301, 1302, 1303, 1304, 1305, 1306, 1307, 1308, 1309, 1310, 1311, 1312, 1313
 1314, 1315, 1316, 1317, 1318, 1319, 1320, 1321, 1322, 1323, 1324, 1325, 1359, 1393, 1427, 1461
 1495, 1529, 1563, 1564, 1565, 1566, 1567, 1568, 1569, 1570, 1571, 1572, 1573, 1574, 1575, 1576
 1577, 1578, 1579, 1580, 1581, 1582, 1583, 1584, 1585, 1586, 1587, 1588, 1589, 1590, 1591, 1592
 1593, 1594, 1595, 1596, 1597, 1598, 1599, 1600, 1604, 1608, 1612, 1616, 1620, 1624, 1628, 1632
 1636, 1640, 1644, 1648, 1652, 1656, 1660, 1664, 1668, 1672, 1676, 1677, 1678, 1679, 1680, 1714
 1748, 1782, 1816, 1850, 1884, 1918, 1952, 1986, 2020, 2054, 2088, 2089, 2090, 2091, 2092, 2093
 2094, 2095, 2096, 2097, 2098, 2099, 2100, 2101, 2102, 2103, 2104, 2105, 2106, 2107, 2108, 2109
 2110, 2111, 2112, 2113, 2114, 2115, 2116, 2117, 2118, 2119, 2120, 2121, 2122, 2123, 2157, 2191
 2225, 2259, 2293, 2327, 2361, 2362, 2363, 2364, 2365, 2366, 2367, 2368, 2369, 2370, 2371, 2372
** ... 52 like lines cut
*Nset, nset=Set-2, instance=P240-1, generate
 8581,  9438,     1
*Elset, elset=Set-2, instance=P240-1, generate
 7183,  7980,     1
*Elset, elset=_Surf-1_S1, internal, instance=P240-1, generate
  1,  84,   1
*Surface, type=ELEMENT, name=Surf-1
_Surf-1_S1, S1
*End Assembly
** 
** MATERIALS
** 
*Material, name=Material-1
*Elastic
 31622.8, 0.2
** ----------------------------------------------------------------
** 
** STEP: Step-1
** 
*Step, name=Step-1, nlgeom=NO
*Static
0.1, 1., 1e-05, 1.
** 
** BOUNDARY CONDITIONS
** 
** Name: BC-1 Type: Symmetry/Antisymmetry/Encastre
*Boundary
Set-1, ZASYMM
** Name: BC-2 Type: Symmetry/Antisymmetry/Encastre
*Boundary
Set-2, ENCASTRE
** 
** LOADS
** 
** Name: Load-1   Type: Pressure
*Dsload
Surf-1, P, 0.8
** 
** OUTPUT REQUESTS
** 
*Restart, write, frequency=0
** 
** FIELD OUTPUT: F-Output-2
** 
*Output, field
*Node Output
U, 
*Element Output, directions=YES
E, S
** 
** FIELD OUTPUT: F-Output-1
** 
*Output, field, variable=PRESELECT
** 
** HISTORY OUTPUT: H-Output-1
** 
*Output, history, variable=PRESELECT
*End Step
