*Heading
** Job name: 240S Model name: 240
** Generated by: Abaqus/CAE 2018
*Preprint, echo=NO, model=NO, history=NO, contact=NO
**
** PARTS
**
*Part, name=P240
*End Part
**  
**
** ASSEMBLY
**
*Assembly, name=Assembly
**  
*Instance, name=P240-1, part=P240
*Node
      1,         250.,         250.,          50.
      2,         250.,           0.,          50.
      3,         250.,           0.,           0.
      4,         250.,         250.,           0.
      5,           0.,           0.,          50.
      6,           0.,           0.,           0.
      7,           0.,         250.,           0.
      8,           0.,         250.,          50.
      9,         250.,         250.,         100.
     10,         250.,           0.,         100.
     11,          10.,         250.,         100.
     12,          10.,           0.,         100.
     13,         250.,   241.935486,          50.
     14,         250.,   233.870972,          50.
     15,         250.,   225.806458,          50.
     16,         250.,   217.741928,          50.
     17,         250.,   209.677414,          50.
     18,         250.,     201.6129,          50.
     19,         250.,   193.548386,          50.
     20,         250.,   185.483871,          50.
** ... 13292 like lines cut
*Element, type=C3D8R
   1,  212, 1013, 4313,  713,    1,   13,  413,   82
   2, 1013, 1014, 4314, 4313,   13,   14,  414,  413
   3, 1014, 1015, 4315, 4314,   14,   15,  415,  414
   4, 1015, 1016, 4316, 4315,   15,   16,  416,  415
   5, 1016, 1017, 4317, 4316,   16,   17,  417,  416
   6, 1017, 1018, 4318, 4317,   17,   18,  418,  417
   7, 1018, 1019, 4319, 4318,   18,   19,  419,  418
   8, 1019, 1020, 4320, 4319,   19,   20,  420,  419
   9, 1020, 1021, 4321, 4320,   20,   21,  421,  420
  10, 1021, 1022, 4322, 4321,   21,   22,  422,  421
  11, 1022, 1023, 4323, 4322,   22,   23,  423,  422
  12, 1023, 1024, 4324, 4323,   23,   24,  424,  423
  13, 1024, 1025, 4325, 4324,   24,   25,  425,  424
  14, 1025, 1026, 4326, 4325,   25,   26,  426,  425
  15, 1026, 1027, 4327, 4326,   26,   27,  427,  426
  16, 1027, 1028, 4328, 4327,   27,   28,  428,  427
  17, 1028, 1029, 4329, 4328,   28,   29,  429,  428
  18, 1029, 1030, 4330, 4329,   29,   30,  430,  429
  19, 1030, 1031, 4331, 4330,   30,   31,  431,  430
  20, 1031, 1032, 4332, 4331,   31,   32,  432,  431
** ... 11512 like lines cut
*Nset, nset=Set-1, generate
     1,  13312,      1
*Elset, elset=Set-1, generate
     1,  11532,      1
** Section: Section-1
*Solid Section, elset=Set-1, material=Material-1
,
*End Instance
**  
*Nset, nset=Set-1, instance=P240-1
    1,    2,    3,    4,    5,    6,    7,    8,    9,   10,   11,   12,   13,   14,   15,   16
   17,   18,   19,   20,   21,   22,   23,   24,   25,   26,   27,   28,   29,   30,   31,   32
   33,   34,   35,   36,   37,   38,   39,   40,   41,   42,   43,   44,   45,   46,   47,   48
   49,   50,   51,   52,   53,   54,   55,   56,   57,   58,   59,   60,   61,   62,   63,   64
   65,   66,   67,   68,   69,   70,   71,   72,   73,   74,   75,   76,   77,   78,   79,   80
   81,   82,   83,   84,   85,   86,   87,   88,   89,   90,   91,   92,   93,   94,   95,   96
   97,   98,   99,  100,  101,  102,  103,  104,  105,  106,  107,  108,  109,  110,  111,  112
  113,  114,  115,  116,  117,  118,  119,  120,  121,  122,  123,  124,  125,  126,  127,  128
  129,  130,  131,  132,  133,  134,  135,  136,  137,  138,  139,  140,  141,  142,  143,  144
  145,  146,  147,  148,  149,  150,  151,  152,  153,  154,  155,  156,  157,  158,  159,  160
  161,  162,  163,  164,  165,  166,  167,  168,  169,  170,  171,  172,  173,  174,  175,  176
  177,  178,  179,  180,  181,  182,  183,  184,  185,  186,  187,  188,  189,  190,  191,  192
  193,  194,  195,  196,  197,  198,  199,  200,  201,  202,  203,  204,  205,  206,  207,  208
  209,  210,  211,  212,  213,  214,  215,  216,  217,  218,  219,  220,  221,  222,  223,  224
  225,  226,  227,  228,  229,  230,  231,  232,  233,  234,  235,  236,  237,  238,  239,  240
  241,  242,  243,  244,  245,  246,  247,  248,  249,  250,  251,  252,  253,  254,  255,  256
  257,  258,  259,  260,  261,  262,  263,  264,  265,  266,  267,  268,  269,  270,  271,  272
  273,  274,  275,  276,  277,  278,  279,  280,  281,  282,  283,  284,  285,  286,  287,  288
  289,  290,  291,  292,  293,  294,  295,  296,  297,  298,  299,  300,  301,  302,  303,  304
  305,  306,  307,  308,  309,  310,  311,  312,  313,  314,  315,  316,  317,  348,  349,  350
** ... 70 like lines cut
*Elset, elset=Set-1, instance=P240-1
     1,     2,     3,     4,     5,     6,     7,     8,     9,    10,    11,    12,    13,    14,    15,    16
    17,    18,    19,    20,    21,    22,    23,    24,    25,    26,    27,    28,    29,    30,    31,    32
    33,    34,    35,    36,    37,    38,    39,    40,    41,    42,    43,    44,    45,    46,    47,    48
    49,    50,    51,    52,    53,    54,    55,    56,    57,    58,    59,    60,    61,    62,    63,    64
    65,    66,    67,    68,    69,    70,    71,    72,    73,    74,    75,    76,    77,    78,    79,    80
    81,    82,    83,    84,    85,    86,    87,    88,    89,    90,    91,    92,    93,    94,    95,    96
    97,    98,    99,   100,   101,   102,   103,   104,   105,   106,   107,   108,   109,   110,   111,   112
   113,   114,   115,   116,   117,   118,   119,   120,   121,   122,   123,   124,   125,   126,   127,   128
   129,   130,   131,   132,   133,   134,   135,   136,   137,   138,   139,   140,   141,   142,   143,   144
   145,   146,   147,   148,   149,   150,   151,   152,   153,   154,   155,   156,   157,   158,   159,   160
   161,   162,   163,   164,   165,   166,   167,   168,   169,   170,   171,   172,   173,   174,   175,   176
   177,   178,   179,   180,   181,   182,   183,   184,   185,   186,   187,   217,   218,   248,   249,   279
   280,   310,   311,   341,   342,   372,   373,   403,   404,   434,   435,   465,   466,   496,   497,   527
   528,   558,   559,   589,   590,   620,   621,   651,   652,   682,   683,   713,   714,   744,   745,   775
   776,   806,   807,   837,   838,   868,   869,   899,   900,   930,   931,   961,   962,   992,   993,  1023
  1024,  1054,  1055,  1085,  1086,  1116,  1117,  1147,  1148,  1178,  1179,  1209,  1210,  1240,  1241,  1271
  1272,  1302,  1303,  1333,  1334,  1364,  1365,  1395,  1396,  1426,  1427,  1457,  1458,  1488,  1489,  1519
  1520,  1550,  1551,  1581,  1582,  1612,  1613,  1643,  1644,  1674,  1675,  1705,  1706,  1736,  1737,  1767
  1768,  1798,  1799,  1829,  1830,  1860,  1861,  1891,  1892,  1922,  1923,  1953,  1954,  1984,  1985,  2015
  2016,  2046,  2047,  2077,  2078,  2108,  2109,  2139,  2140,  2170,  2171,  2201,  2202,  2232,  2233,  2263
** ... 60 like lines cut
*Nset, nset=Set-2, instance=P240-1
    3,    4,    6,    7,   48,   49,   50,   51,   52,   53,   54,   55,   56,   57,   58,   59
   60,   61,   62,   63,   64,   65,   66,   67,   68,   69,   70,   71,   72,   73,   74,   75
   76,   77,  118,  119,  120,  121,  122,  123,  124,  125,  126,  127,  128,  129,  130,  131
  132,  133,  134,  135,  136,  137,  138,  139,  140,  141,  142,  143,  144,  145,  146,  147
  153,  154,  155,  156,  157,  158,  159,  160,  161,  162,  163,  164,  165,  166,  167,  168
  169,  170,  171,  172,  173,  174,  175,  176,  177,  178,  179,  180,  181,  182,  213,  214
  215,  216,  217,  218,  219,  220,  221,  222,  223,  224,  225,  226,  227,  228,  229,  230
  231,  232,  233,  234,  235,  236,  237,  238,  239,  240,  241,  242, 1913, 1914, 1915, 1916
 1917, 1918, 1919, 1920, 1921, 1922, 1923, 1924, 1925, 1926, 1927, 1928, 1929, 1930, 1931, 1932
 1933, 1934, 1935, 1936, 1937, 1938, 1939, 1940, 1941, 1942, 1943, 1944, 1945, 1946, 1947, 1948
 1949, 1950, 1951, 1952, 1953, 1954, 1955, 1956, 1957, 1958, 1959, 1960, 1961, 1962, 1963, 1964
 1965, 1966, 1967, 1968, 1969, 1970, 1971, 1972, 1973, 1974, 1975, 1976, 1977, 1978, 1979, 1980
 1981, 1982, 1983, 1984, 1985, 1986, 1987, 1988, 1989, 1990, 1991, 1992, 1993, 1994, 1995, 1996
 1997, 1998, 1999, 2000, 2001, 2002, 2003, 2004, 2005, 2006, 2007, 2008, 2009, 2010, 2011, 2012
 2013, 2014, 2015, 2016, 2017, 2018, 2019, 2020, 2021, 2022, 2023, 2024, 2025, 2026, 2027, 2028
 2029, 2030, 2031, 2032, 2033, 2034, 2035, 2036, 2037, 2038, 2039, 2040, 2041, 2042, 2043, 2044
 2045, 2046, 2047, 2048, 2049, 2050, 2051, 2052, 2053, 2054, 2055, 2056, 2057, 2058, 2059, 2060
 2061, 2062, 2063, 2064, 2065, 2066, 2067, 2068, 2069, 2070, 2071, 2072, 2073, 2074, 2075, 2076
 2077, 2078, 2079, 2080, 2081, 2082, 2083, 2084, 2085, 2086, 2087, 2088, 2089, 2090, 2091, 2092
 2093, 2094, 2095, 2096, 2097, 2098, 2099, 2100, 2101, 2102, 2103, 2104, 2105, 2106, 2107, 2108
** ... 44 like lines cut
*Elset, elset=Set-2, instance=P240-1
  156,  157,  158,  159,  160,  161,  162,  163,  164,  165,  166,  167,  168,  169,  170,  171
  172,  173,  174,  175,  176,  177,  178,  179,  180,  181,  182,  183,  184,  185,  186,  342
  343,  344,  345,  346,  347,  348,  349,  350,  351,  352,  353,  354,  355,  356,  357,  358
  359,  360,  361,  362,  363,  364,  365,  366,  367,  368,  369,  370,  371,  372,  528,  529
  530,  531,  532,  533,  534,  535,  536,  537,  538,  539,  540,  541,  542,  543,  544,  545
  546,  547,  548,  549,  550,  551,  552,  553,  554,  555,  556,  557,  558,  714,  715,  716
  717,  718,  719,  720,  721,  722,  723,  724,  725,  726,  727,  728,  729,  730,  731,  732
  733,  734,  735,  736,  737,  738,  739,  740,  741,  742,  743,  744,  900,  901,  902,  903
  904,  905,  906,  907,  908,  909,  910,  911,  912,  913,  914,  915,  916,  917,  918,  919
  920,  921,  922,  923,  924,  925,  926,  927,  928,  929,  930, 1086, 1087, 1088, 1089, 1090
 1091, 1092, 1093, 1094, 1095, 1096, 1097, 1098, 1099, 1100, 1101, 1102, 1103, 1104, 1105, 1106
 1107, 1108, 1109, 1110, 1111, 1112, 1113, 1114, 1115, 1116, 1272, 1273, 1274, 1275, 1276, 1277
 1278, 1279, 1280, 1281, 1282, 1283, 1284, 1285, 1286, 1287, 1288, 1289, 1290, 1291, 1292, 1293
 1294, 1295, 1296, 1297, 1298, 1299, 1300, 1301, 1302, 1458, 1459, 1460, 1461, 1462, 1463, 1464
 1465, 1466, 1467, 1468, 1469, 1470, 1471, 1472, 1473, 1474, 1475, 1476, 1477, 1478, 1479, 1480
 1481, 1482, 1483, 1484, 1485, 1486, 1487, 1488, 1644, 1645, 1646, 1647, 1648, 1649, 1650, 1651
 1652, 1653, 1654, 1655, 1656, 1657, 1658, 1659, 1660, 1661, 1662, 1663, 1664, 1665, 1666, 1667
 1668, 1669, 1670, 1671, 1672, 1673, 1674, 1830, 1831, 1832, 1833, 1834, 1835, 1836, 1837, 1838
 1839, 1840, 1841, 1842, 1843, 1844, 1845, 1846, 1847, 1848, 1849, 1850, 1851, 1852, 1853, 1854
 1855, 1856, 1857, 1858, 1859, 1860, 2016, 2017, 2018, 2019, 2020, 2021, 2022, 2023, 2024, 2025
** ... 41 like lines cut
*Elset, elset=_Surf-1_S5, internal, instance=P240-1
  5922,  5923,  5924,  5925,  5926,  5927,  5928,  5929,  5930,  5931,  5932,  5933,  5934,  5935,  5936,  5937
  5938,  5939,  5940,  5941,  5942,  5943,  5944,  5945,  5946,  5947,  5948,  5949,  5950,  5951,  5952,  6108
  6109,  6110,  6111,  6112,  6113,  6114,  6115,  6116,  6117,  6118,  6119,  6120,  6121,  6122,  6123,  6124
  6125,  6126,  6127,  6128,  6129,  6130,  6131,  6132,  6133,  6134,  6135,  6136,  6137,  6138,  6294,  6295
  6296,  6297,  6298,  6299,  6300,  6301,  6302,  6303,  6304,  6305,  6306,  6307,  6308,  6309,  6310,  6311
  6312,  6313,  6314,  6315,  6316,  6317,  6318,  6319,  6320,  6321,  6322,  6323,  6324,  6480,  6481,  6482
  6483,  6484,  6485,  6486,  6487,  6488,  6489,  6490,  6491,  6492,  6493,  6494,  6495,  6496,  6497,  6498
  6499,  6500,  6501,  6502,  6503,  6504,  6505,  6506,  6507,  6508,  6509,  6510,  6666,  6667,  6668,  6669
  6670,  6671,  6672,  6673,  6674,  6675,  6676,  6677,  6678,  6679,  6680,  6681,  6682,  6683,  6684,  6685
  6686,  6687,  6688,  6689,  6690,  6691,  6692,  6693,  6694,  6695,  6696,  6852,  6853,  6854,  6855,  6856
  6857,  6858,  6859,  6860,  6861,  6862,  6863,  6864,  6865,  6866,  6867,  6868,  6869,  6870,  6871,  6872
  6873,  6874,  6875,  6876,  6877,  6878,  6879,  6880,  6881,  6882,  7038,  7039,  7040,  7041,  7042,  7043
  7044,  7045,  7046,  7047,  7048,  7049,  7050,  7051,  7052,  7053,  7054,  7055,  7056,  7057,  7058,  7059
  7060,  7061,  7062,  7063,  7064,  7065,  7066,  7067,  7068,  7224,  7225,  7226,  7227,  7228,  7229,  7230
  7231,  7232,  7233,  7234,  7235,  7236,  7237,  7238,  7239,  7240,  7241,  7242,  7243,  7244,  7245,  7246
  7247,  7248,  7249,  7250,  7251,  7252,  7253,  7254,  7410,  7411,  7412,  7413,  7414,  7415,  7416,  7417
  7418,  7419,  7420,  7421,  7422,  7423,  7424,  7425,  7426,  7427,  7428,  7429,  7430,  7431,  7432,  7433
  7434,  7435,  7436,  7437,  7438,  7439,  7440,  7596,  7597,  7598,  7599,  7600,  7601,  7602,  7603,  7604
  7605,  7606,  7607,  7608,  7609,  7610,  7611,  7612,  7613,  7614,  7615,  7616,  7617,  7618,  7619,  7620
  7621,  7622,  7623,  7624,  7625,  7626,  7782,  7783,  7784,  7785,  7786,  7787,  7788,  7789,  7790,  7791
** ... 41 like lines cut
*Surface, type=ELEMENT, name=Surf-1
_Surf-1_S5, S5
*Elset, elset=_Surf-2_S5, internal, instance=P240-1
  5922,  5923,  5924,  5925,  5926,  5927,  5928,  5929,  5930,  5931,  5932,  5933,  5934,  5935,  5936,  5937
  5938,  5939,  5940,  5941,  5942,  5943,  5944,  5945,  5946,  5947,  5948,  5949,  5950,  5951,  5952,  6108
  6109,  6110,  6111,  6112,  6113,  6114,  6115,  6116,  6117,  6118,  6119,  6120,  6121,  6122,  6123,  6124
  6125,  6126,  6127,  6128,  6129,  6130,  6131,  6132,  6133,  6134,  6135,  6136,  6137,  6138,  6294,  6295
  6296,  6297,  6298,  6299,  6300,  6301,  6302,  6303,  6304,  6305,  6306,  6307,  6308,  6309,  6310,  6311
  6312,  6313,  6314,  6315,  6316,  6317,  6318,  6319,  6320,  6321,  6322,  6323,  6324,  6480,  6481,  6482
  6483,  6484,  6485,  6486,  6487,  6488,  6489,  6490,  6491,  6492,  6493,  6494,  6495,  6496,  6497,  6498
  6499,  6500,  6501,  6502,  6503,  6504,  6505,  6506,  6507,  6508,  6509,  6510,  6666,  6667,  6668,  6669
  6670,  6671,  6672,  6673,  6674,  6675,  6676,  6677,  6678,  6679,  6680,  6681,  6682,  6683,  6684,  6685
  6686,  6687,  6688,  6689,  6690,  6691,  6692,  6693,  6694,  6695,  6696,  6852,  6853,  6854,  6855,  6856
  6857,  6858,  6859,  6860,  6861,  6862,  6863,  6864,  6865,  6866,  6867,  6868,  6869,  6870,  6871,  6872
  6873,  6874,  6875,  6876,  6877,  6878,  6879,  6880,  6881,  6882,  7038,  7039,  7040,  7041,  7042,  7043
  7044,  7045,  7046,  7047,  7048,  7049,  7050,  7051,  7052,  7053,  7054,  7055,  7056,  7057,  7058,  7059
  7060,  7061,  7062,  7063,  7064,  7065,  7066,  7067,  7068,  7224,  7225,  7226,  7227,  7228,  7229,  7230
  7231,  7232,  7233,  7234,  7235,  7236,  7237,  7238,  7239,  7240,  7241,  7242,  7243,  7244,  7245,  7246
  7247,  7248,  7249,  7250,  7251,  7252,  7253,  7254,  7410,  7411,  7412,  7413,  7414,  7415,  7416,  7417
  7418,  7419,  7420,  7421,  7422,  7423,  7424,  7425,  7426,  7427,  7428,  7429,  7430,  7431,  7432,  7433
  7434,  7435,  7436,  7437,  7438,  7439,  7440,  7596,  7597,  7598,  7599,  7600,  7601,  7602,  7603,  7604
  7605,  7606,  7607,  7608,  7609,  7610,  7611,  7612,  7613,  7614,  7615,  7616,  7617,  7618,  7619,  7620
  7621,  7622,  7623,  7624,  7625,  7626,  7782,  7783,  7784,  7785,  7786,  7787,  7788,  7789,  7790,  7791
** ... 41 like lines cut
*Surface, type=ELEMENT, name=Surf-2
_Surf-2_S5, S5
*End Assembly
*Amplitude, name=Amp-1
            0.1,           514.8,             0.2,          1029.6,             0.3,          1544.4,             0.4,          2059.2
            0.5,           2574.,             0.6,          3088.8,             0.7,          3603.6,             0.8,          4118.4
            0.9,          4633.2,              1.,           5148.
** 
** MATERIALS
** 
*Material, name=Material-1
*Elastic
 31622.8, 0.2
** ----------------------------------------------------------------
** 
** STEP: Step-1
** 
*Step, name=Step-1, nlgeom=NO
*Static
0.1, 1., 1e-05, 1.
** 
** BOUNDARY CONDITIONS
** 
** Name: BC-1 Type: Symmetry/Antisymmetry/Encastre
*Boundary
Set-1, ZASYMM
** Name: BC-2 Type: Symmetry/Antisymmetry/Encastre
*Boundary
Set-2, ENCASTRE
** 
** LOADS
** 
** Name: Load-1   Type: Pressure
*Dsload
Surf-2, P, 0.8
** 
** OUTPUT REQUESTS
** 
*Restart, write, frequency=0
** 
** FIELD OUTPUT: F-Output-2
** 
*Output, field
*Node Output
U, 
*Element Output, directions=YES
E, S
** 
** FIELD OUTPUT: F-Output-1
** 
*Output, field, variable=PRESELECT
** 
** HISTORY OUTPUT: H-Output-1
** 
*Output, history, variable=PRESELECT
*End Step
