*Heading
** Job name: 250 Model name: 250
** Generated by: Abaqus/CAE 2018
*Preprint, echo=NO, model=NO, history=NO, contact=NO
**
** PARTS
**
*Part, name=P250
*End Part
**  
**
** ASSEMBLY
**
*Assembly, name=Assembly
**  
*Instance, name=P250-1, part=P250
*Node
      1,         250.,   66.8375702,         100.
      2,   268.467865,         77.5,         100.
      3,   268.467865,        232.5,         100.
      4,         250.,    243.16243,         100.
      5,   134.233932,           0.,   76.8467865
      6,           0.,         77.5,          50.
      7,   134.233932,         310.,   76.8467865
      8,           0.,        232.5,          50.
      9,         250.,   234.197418,         100.
     10,         250.,   225.902359,         100.
     11,         250.,   217.293976,         100.
     12,         250.,   208.415039,         100.
     13,         250.,   199.507843,         100.
     14,         250.,   190.438782,         100.
     15,         250.,   181.296967,         100.
     16,         250.,    172.14122,         100.
     17,         250.,   163.009399,         100.
     18,         250.,   153.916672,         100.
     19,         250.,   144.834579,         100.
     20,         250.,   135.820648,         100.
** ... 8989 like lines cut
*Element, type=C3D8R
   1,   27,  136,   28,    1,  846,  955,  847,  820
   2,  136,  137,   29,   28,  955,  956,  848,  847
   3,  137,   30,    2,   29,  956,  849,  821,  848
   4,   26,  138,  136,   27,  845,  957,  955,  846
   5,  138,  139,  137,  136,  957,  958,  956,  955
   6,  139,   31,   30,  137,  958,  850,  849,  956
   7,   25,  140,  138,   26,  844,  959,  957,  845
   8,  140,  141,  139,  138,  959,  960,  958,  957
   9,  141,   32,   31,  139,  960,  851,  850,  958
  10,   24,  142,  140,   25,  843,  961,  959,  844
  11,  142,  143,  141,  140,  961,  962,  960,  959
  12,  143,   33,   32,  141,  962,  852,  851,  960
  13,   23,  144,  142,   24,  842,  963,  961,  843
  14,  144,  145,  143,  142,  963,  964,  962,  961
  15,  145,   34,   33,  143,  964,  853,  852,  962
  16,   22,  146,  144,   23,  841,  965,  963,  842
  17,  146,  147,  145,  144,  965,  966,  964,  963
  18,  147,   35,   34,  145,  966,  854,  853,  964
  19,   21,  148,  146,   22,  840,  967,  965,  841
  20,  148,  149,  147,  146,  967,  968,  966,  965
** ... 7580 like lines cut
*Nset, nset=Set-1, generate
    1,  9009,     1
*Elset, elset=Set-1, generate
    1,  7600,     1
** Section: Section-1
*Solid Section, elset=Set-1, material=Material-1
,
*End Instance
**  
*Nset, nset=Set-1, instance=P250-1
    1,    2,    3,    4,    5,    6,    7,    8,   28,   29,   30,   31,   32,   33,   34,   35
   36,   37,   38,   39,   40,   41,   42,   43,   44,   45,   46,   47,   48,   49,   50,   51
   52,   53,   54,   55,   56,   57,   58,   59,   60,   61,   62,   63,   64,   65,   66,   67
   68,   69,   70,   71,   72,   73,   74,   75,   76,   77,   78,   79,   80,   81,   82,   83
   84,   85,   86,   87,   88,   89,   90,   91,   92,   93,   94,   95,   96,   97,   98,   99
  100,  101,  102,  103,  104,  105,  106,  107,  108,  109,  110,  111,  112,  113,  114,  115
  116,  117,  118,  119,  120,  121,  122,  123,  124,  125,  126,  127,  128,  129,  130,  131
  132,  133,  134,  135,  820,  821,  822,  823,  824,  825,  826,  827,  847,  848,  849,  850
  851,  852,  853,  854,  855,  856,  857,  858,  859,  860,  861,  862,  863,  864,  865,  866
  867,  868,  869,  870,  871,  872,  873,  874,  875,  876,  877,  878,  879,  880,  881,  882
  883,  884,  885,  886,  887,  888,  889,  890,  891,  892,  893,  894,  895,  896,  897,  898
  899,  900,  901,  902,  903,  904,  905,  906,  907,  908,  909,  910,  911,  912,  913,  914
  915,  916,  917,  918,  919,  920,  921,  922,  923,  924,  925,  926,  927,  928,  929,  930
  931,  932,  933,  934,  935,  936,  937,  938,  939,  940,  941,  942,  943,  944,  945,  946
  947,  948,  949,  950,  951,  952,  953,  954, 1639, 1640, 1641, 1642, 1643, 1644, 1645, 1646
 1666, 1667, 1668, 1669, 1670, 1671, 1672, 1673, 1674, 1675, 1676, 1677, 1678, 1679, 1680, 1681
 1682, 1683, 1684, 1685, 1686, 1687, 1688, 1689, 1690, 1691, 1692, 1693, 1694, 1695, 1696, 1697
 1698, 1699, 1700, 1701, 1702, 1703, 1704, 1705, 1706, 1707, 1708, 1709, 1710, 1711, 1712, 1713
 1714, 1715, 1716, 1717, 1718, 1719, 1720, 1721, 1722, 1723, 1724, 1725, 1726, 1727, 1728, 1729
 1730, 1731, 1732, 1733, 1734, 1735, 1736, 1737, 1738, 1739, 1740, 1741, 1742, 1743, 1744, 1745
** ... 60 like lines cut
*Elset, elset=Set-1, instance=P250-1
    1,    2,    3,    6,    9,   12,   15,   18,   21,   24,   27,   30,   33,   36,   39,   42
   45,   48,   51,   54,   57,   58,   59,   60,   95,  130,  165,  200,  235,  270,  305,  340
  375,  410,  445,  446,  447,  448,  449,  450,  451,  452,  453,  454,  455,  456,  457,  458
  459,  460,  461,  462,  463,  464,  465,  466,  467,  468,  469,  470,  471,  472,  473,  474
  475,  476,  477,  478,  479,  480,  481,  516,  551,  586,  621,  656,  691,  726,  727,  728
  729,  730,  731,  732,  733,  734,  735,  736,  737,  738,  739,  740,  741,  742,  743,  744
  745,  746,  747,  748,  749,  750,  751,  752,  753,  754,  755,  756,  757,  758,  759,  760
  761,  762,  763,  766,  769,  772,  775,  778,  781,  784,  787,  790,  793,  796,  799,  802
  805,  808,  811,  814,  817,  818,  819,  820,  855,  890,  925,  960,  995, 1030, 1065, 1100
 1135, 1170, 1205, 1206, 1207, 1208, 1209, 1210, 1211, 1212, 1213, 1214, 1215, 1216, 1217, 1218
 1219, 1220, 1221, 1222, 1223, 1224, 1225, 1226, 1227, 1228, 1229, 1230, 1231, 1232, 1233, 1234
 1235, 1236, 1237, 1238, 1239, 1240, 1241, 1276, 1311, 1346, 1381, 1416, 1451, 1486, 1487, 1488
 1489, 1490, 1491, 1492, 1493, 1494, 1495, 1496, 1497, 1498, 1499, 1500, 1501, 1502, 1503, 1504
 1505, 1506, 1507, 1508, 1509, 1510, 1511, 1512, 1513, 1514, 1515, 1516, 1517, 1518, 1519, 1520
 1521, 1522, 1523, 1526, 1529, 1532, 1535, 1538, 1541, 1544, 1547, 1550, 1553, 1556, 1559, 1562
 1565, 1568, 1571, 1574, 1577, 1578, 1579, 1580, 1615, 1650, 1685, 1720, 1755, 1790, 1825, 1860
 1895, 1930, 1965, 1966, 1967, 1968, 1969, 1970, 1971, 1972, 1973, 1974, 1975, 1976, 1977, 1978
 1979, 1980, 1981, 1982, 1983, 1984, 1985, 1986, 1987, 1988, 1989, 1990, 1991, 1992, 1993, 1994
 1995, 1996, 1997, 1998, 1999, 2000, 2001, 2036, 2071, 2106, 2141, 2176, 2211, 2246, 2247, 2248
 2249, 2250, 2251, 2252, 2253, 2254, 2255, 2256, 2257, 2258, 2259, 2260, 2261, 2262, 2263, 2264
** ... 50 like lines cut
*Nset, nset=Set-2, instance=P250-1, generate
 8191,  9009,     1
*Elset, elset=Set-2, instance=P250-1, generate
 6841,  7600,     1
*Elset, elset=_Surf-1_S1, internal, instance=P250-1, generate
  1,  60,   1
*Surface, type=ELEMENT, name=Surf-1
_Surf-1_S1, S1
*End Assembly
** 
** MATERIALS
** 
*Material, name=Material-1
*Elastic
 31622.8, 0.2
** ----------------------------------------------------------------
** 
** STEP: Step-1
** 
*Step, name=Step-1, nlgeom=NO
*Static
0.1, 1., 1e-05, 1.
** 
** BOUNDARY CONDITIONS
** 
** Name: BC-1 Type: Symmetry/Antisymmetry/Encastre
*Boundary
Set-1, ZASYMM
** Name: BC-2 Type: Symmetry/Antisymmetry/Encastre
*Boundary
Set-2, ENCASTRE
** 
** LOADS
** 
** Name: Load-1   Type: Pressure
*Dsload
Surf-1, P, 0.8
** 
** OUTPUT REQUESTS
** 
*Restart, write, frequency=0
** 
** FIELD OUTPUT: F-Output-2
** 
*Output, field
*Node Output
U, 
*Element Output, directions=YES
E, S
** 
** FIELD OUTPUT: F-Output-1
** 
*Output, field, variable=PRESELECT
** 
** HISTORY OUTPUT: H-Output-1
** 
*Output, history, variable=PRESELECT
*End Step
