*Heading
** Job name: 260 Model name: 260
** Generated by: Abaqus/CAE 2018
*Preprint, echo=NO, model=NO, history=NO, contact=NO
**
** PARTS
**
*Part, name=P260
*End Part
**  
**
** ASSEMBLY
**
*Assembly, name=Assembly
**  
*Instance, name=P260-1, part=P260
*Node
      1,         260.,   72.6110687,         100.
      2,   268.467865,         77.5,         100.
      3,   268.467865,        232.5,         100.
      4,         260.,   237.388931,         100.
      5,   134.233932,           0.,   75.8142166
      6,           0.,         77.5,          50.
      7,   134.233932,         310.,   75.8142166
      8,           0.,        232.5,          50.
      9,         260.,   229.721344,         100.
     10,         260.,   222.337311,         100.
     11,         260.,   214.508072,         100.
     12,         260.,   206.395508,         100.
     13,         260.,   197.787689,         100.
     14,         260.,    188.79393,         100.
     15,         260.,   179.956238,         100.
     16,         260.,   171.156998,         100.
     17,         260.,   162.464737,         100.
     18,         260.,   153.880646,         100.
     19,         260.,   145.304535,         100.
     20,         260.,   136.760681,         100.
** ... 7960 like lines cut
*Element, type=C3D8R
   1,   27,   28,    2,    1,  825,  826,  800,  799
   2,   26,   29,   28,   27,  824,  827,  826,  825
   3,   25,   30,   29,   26,  823,  828,  827,  824
   4,   24,   31,   30,   25,  822,  829,  828,  823
   5,   23,   32,   31,   24,  821,  830,  829,  822
   6,   22,   33,   32,   23,  820,  831,  830,  821
   7,   21,   34,   33,   22,  819,  832,  831,  820
   8,   20,   35,   34,   21,  818,  833,  832,  819
   9,   19,   36,   35,   20,  817,  834,  833,  818
  10,   18,   37,   36,   19,  816,  835,  834,  817
  11,   17,   38,   37,   18,  815,  836,  835,  816
  12,   16,   39,   38,   17,  814,  837,  836,  815
  13,   15,   40,   39,   16,  813,  838,  837,  814
  14,   14,   41,   40,   15,  812,  839,  838,  813
  15,   13,   42,   41,   14,  811,  840,  839,  812
  16,   12,   43,   42,   13,  810,  841,  840,  811
  17,   11,   44,   43,   12,  809,  842,  841,  810
  18,   10,   45,   44,   11,  808,  843,  842,  809
  19,    9,   46,   45,   10,  807,  844,  843,  808
  20,    4,    3,   46,    9,  802,  801,  844,  807
** ... 6640 like lines cut
*Nset, nset=Set-1, generate
    1,  7980,     1
*Elset, elset=Set-1, generate
    1,  6660,     1
** Section: Section-1
*Solid Section, elset=Set-1, material=Material-1
,
*End Instance
**  
*Nset, nset=Set-1, instance=P260-1
    1,    2,    3,    4,    5,    6,    7,    8,   28,   29,   30,   31,   32,   33,   34,   35
   36,   37,   38,   39,   40,   41,   42,   43,   44,   45,   46,   47,   48,   49,   50,   51
   52,   53,   54,   55,   56,   57,   58,   59,   60,   61,   62,   63,   64,   65,   66,   67
   68,   69,   70,   71,   72,   73,   74,   75,   76,   77,   78,   79,   80,   81,   82,   83
   84,   85,   86,   87,   88,   89,   90,   91,   92,   93,   94,   95,   96,   97,   98,   99
  100,  101,  102,  103,  104,  105,  106,  107,  108,  109,  110,  111,  112,  113,  114,  115
  116,  117,  118,  119,  120,  121,  122,  123,  124,  125,  126,  127,  128,  129,  130,  131
  132,  133,  799,  800,  801,  802,  803,  804,  805,  806,  826,  827,  828,  829,  830,  831
  832,  833,  834,  835,  836,  837,  838,  839,  840,  841,  842,  843,  844,  845,  846,  847
  848,  849,  850,  851,  852,  853,  854,  855,  856,  857,  858,  859,  860,  861,  862,  863
  864,  865,  866,  867,  868,  869,  870,  871,  872,  873,  874,  875,  876,  877,  878,  879
  880,  881,  882,  883,  884,  885,  886,  887,  888,  889,  890,  891,  892,  893,  894,  895
  896,  897,  898,  899,  900,  901,  902,  903,  904,  905,  906,  907,  908,  909,  910,  911
  912,  913,  914,  915,  916,  917,  918,  919,  920,  921,  922,  923,  924,  925,  926,  927
  928,  929,  930,  931, 1597, 1598, 1599, 1600, 1601, 1602, 1603, 1604, 1624, 1625, 1626, 1627
 1628, 1629, 1630, 1631, 1632, 1633, 1634, 1635, 1636, 1637, 1638, 1639, 1640, 1641, 1642, 1643
 1644, 1645, 1646, 1647, 1648, 1649, 1650, 1651, 1652, 1653, 1654, 1655, 1656, 1657, 1658, 1659
 1660, 1661, 1662, 1663, 1664, 1665, 1666, 1667, 1668, 1669, 1670, 1671, 1672, 1673, 1674, 1675
 1676, 1677, 1678, 1679, 1680, 1681, 1682, 1683, 1684, 1685, 1686, 1687, 1688, 1689, 1690, 1691
 1692, 1693, 1694, 1695, 1696, 1697, 1698, 1699, 1700, 1701, 1702, 1703, 1704, 1705, 1706, 1707
** ... 52 like lines cut
*Elset, elset=Set-1, instance=P260-1
    1,    2,    3,    4,    5,    6,    7,    8,    9,   10,   11,   12,   13,   14,   15,   16
   17,   18,   19,   20,   56,   92,  128,  164,  200,  236,  272,  308,  344,  380,  416,  417
  418,  419,  420,  421,  422,  423,  424,  425,  426,  427,  428,  429,  430,  431,  432,  433
  434,  435,  436,  437,  438,  439,  440,  441,  442,  443,  444,  445,  446,  447,  448,  449
  450,  451,  452,  453,  489,  525,  561,  597,  633,  669,  705,  706,  707,  708,  709,  710
  711,  712,  713,  714,  715,  716,  717,  718,  719,  720,  721,  722,  723,  724,  725,  726
  727,  728,  729,  730,  731,  732,  733,  734,  735,  736,  737,  738,  739,  740,  741,  742
  743,  744,  745,  746,  747,  748,  749,  750,  751,  752,  753,  754,  755,  756,  757,  758
  759,  760,  796,  832,  868,  904,  940,  976, 1012, 1048, 1084, 1120, 1156, 1157, 1158, 1159
 1160, 1161, 1162, 1163, 1164, 1165, 1166, 1167, 1168, 1169, 1170, 1171, 1172, 1173, 1174, 1175
 1176, 1177, 1178, 1179, 1180, 1181, 1182, 1183, 1184, 1185, 1186, 1187, 1188, 1189, 1190, 1191
 1192, 1193, 1229, 1265, 1301, 1337, 1373, 1409, 1445, 1446, 1447, 1448, 1449, 1450, 1451, 1452
 1453, 1454, 1455, 1456, 1457, 1458, 1459, 1460, 1461, 1462, 1463, 1464, 1465, 1466, 1467, 1468
 1469, 1470, 1471, 1472, 1473, 1474, 1475, 1476, 1477, 1478, 1479, 1480, 1481, 1482, 1483, 1484
 1485, 1486, 1487, 1488, 1489, 1490, 1491, 1492, 1493, 1494, 1495, 1496, 1497, 1498, 1499, 1500
 1536, 1572, 1608, 1644, 1680, 1716, 1752, 1788, 1824, 1860, 1896, 1897, 1898, 1899, 1900, 1901
 1902, 1903, 1904, 1905, 1906, 1907, 1908, 1909, 1910, 1911, 1912, 1913, 1914, 1915, 1916, 1917
 1918, 1919, 1920, 1921, 1922, 1923, 1924, 1925, 1926, 1927, 1928, 1929, 1930, 1931, 1932, 1933
 1969, 2005, 2041, 2077, 2113, 2149, 2185, 2186, 2187, 2188, 2189, 2190, 2191, 2192, 2193, 2194
 2195, 2196, 2197, 2198, 2199, 2200, 2201, 2202, 2203, 2204, 2205, 2206, 2207, 2208, 2209, 2210
** ... 42 like lines cut
*Nset, nset=Set-2, instance=P260-1, generate
 7183,  7980,     1
*Elset, elset=Set-2, instance=P260-1, generate
 5921,  6660,     1
*Elset, elset=_Surf-1_S1, internal, instance=P260-1, generate
  1,  20,   1
*Surface, type=ELEMENT, name=Surf-1
_Surf-1_S1, S1
*End Assembly
** 
** MATERIALS
** 
*Material, name=Material-1
*Elastic
 31622.8, 0.2
** ----------------------------------------------------------------
** 
** STEP: Step-1
** 
*Step, name=Step-1, nlgeom=NO
*Static
0.1, 1., 1e-05, 1.
** 
** BOUNDARY CONDITIONS
** 
** Name: BC-1 Type: Symmetry/Antisymmetry/Encastre
*Boundary
Set-1, ZASYMM
** Name: BC-2 Type: Symmetry/Antisymmetry/Encastre
*Boundary
Set-2, ENCASTRE
** 
** LOADS
** 
** Name: Load-1   Type: Pressure
*Dsload
Surf-1, P, 0.8
** 
** OUTPUT REQUESTS
** 
*Restart, write, frequency=0
** 
** FIELD OUTPUT: F-Output-2
** 
*Output, field
*Node Output
U, 
*Element Output, directions=YES
E, S
** 
** FIELD OUTPUT: F-Output-1
** 
*Output, field, variable=PRESELECT
** 
** HISTORY OUTPUT: H-Output-1
** 
*Output, history, variable=PRESELECT
*End Step
