*Heading
** Job name: 27deg Model name: 27deg
** Generated by: Abaqus/CAE 2018
*Preprint, echo=NO, model=NO, history=NO, contact=NO
**
** PARTS
**
*Part, name=deg28
*End Part
**  
**
** ASSEMBLY
**
*Assembly, name=Assembly
**  
*Instance, name=deg28-1, part=deg28
*Node
      1,         120.,         240.,           0.
      2,         120.,           0.,           0.
      3,           0.,           0.,           0.
      4,           0.,         240.,           0.
      5,         120.,           0.,          80.
      6,           0.,           0.,   18.8600006
      7,           0.,         240.,   18.8600006
      8,         120.,         240.,          80.
      9,         240.,           0.,           0.
     10,         240.,         240.,           0.
     11,         240.,         240.,          80.
     12,         240.,           0.,          80.
     13,         120.,         235.,           0.
     14,         120.,         230.,           0.
     15,         120.,         225.,           0.
     16,         120.,         220.,           0.
     17,         120.,         215.,           0.
     18,         120.,         210.,           0.
     19,         120.,         205.,           0.
     20,         120.,         200.,           0.
** ... 29380 like lines cut
*Element, type=C3D8R
    1,   316,  3279,  7311,  2799,     1,    13,   543,   154
    2,  3279,  3280,  7312,  7311,    13,    14,   544,   543
    3,  3280,  3281,  7313,  7312,    14,    15,   545,   544
    4,  3281,  3282,  7314,  7313,    15,    16,   546,   545
    5,  3282,  3283,  7315,  7314,    16,    17,   547,   546
    6,  3283,  3284,  7316,  7315,    17,    18,   548,   547
    7,  3284,  3285,  7317,  7316,    18,    19,   549,   548
    8,  3285,  3286,  7318,  7317,    19,    20,   550,   549
    9,  3286,  3287,  7319,  7318,    20,    21,   551,   550
   10,  3287,  3288,  7320,  7319,    21,    22,   552,   551
   11,  3288,  3289,  7321,  7320,    22,    23,   553,   552
   12,  3289,  3290,  7322,  7321,    23,    24,   554,   553
   13,  3290,  3291,  7323,  7322,    24,    25,   555,   554
   14,  3291,  3292,  7324,  7323,    25,    26,   556,   555
   15,  3292,  3293,  7325,  7324,    26,    27,   557,   556
   16,  3293,  3294,  7326,  7325,    27,    28,   558,   557
   17,  3294,  3295,  7327,  7326,    28,    29,   559,   558
   18,  3295,  3296,  7328,  7327,    29,    30,   560,   559
   19,  3296,  3297,  7329,  7328,    30,    31,   561,   560
   20,  3297,  3298,  7330,  7329,    31,    32,   562,   561
** ... 25852 like lines cut
*Nset, nset=Set-1, generate
     1,  29400,      1
*Elset, elset=Set-1, generate
     1,  25872,      1
** Section: Section-1
*Solid Section, elset=Set-1, material=Material-1
,
*End Instance
**  
*Nset, nset=Set-1, instance=deg28-1
    1,    2,    3,    4,    5,    6,    7,    8,    9,   10,   11,   12,   60,   61,   62,   63
   64,   65,   66,   67,   68,   69,   70,   71,   72,   73,   74,   75,   76,   77,   78,   79
   80,   81,   82,   83,   84,   85,   86,   87,   88,   89,   90,   91,   92,   93,   94,   95
   96,   97,   98,   99,  100,  101,  102,  103,  104,  105,  106,  107,  108,  109,  110,  111
  112,  113,  114,  115,  116,  117,  118,  119,  120,  121,  122,  123,  124,  125,  126,  127
  128,  129,  130,  131,  132,  133,  134,  135,  136,  137,  138,  139,  140,  141,  142,  143
  144,  145,  146,  147,  148,  149,  150,  151,  152,  153,  154,  202,  203,  204,  205,  206
  207,  208,  209,  210,  211,  212,  213,  214,  215,  216,  217,  218,  219,  220,  221,  222
  223,  224,  225,  226,  227,  228,  229,  230,  231,  232,  233,  234,  235,  236,  237,  238
  239,  240,  241,  242,  243,  244,  245,  246,  247,  248,  249,  250,  251,  252,  253,  254
  255,  256,  257,  258,  259,  260,  261,  262,  263,  264,  265,  266,  267,  268,  269,  270
  271,  272,  273,  274,  275,  276,  277,  278,  279,  280,  281,  282,  283,  284,  285,  286
  287,  288,  289,  290,  291,  292,  293,  294,  295,  296,  297,  298,  299,  300,  301,  302
  303,  304,  305,  306,  307,  308,  309,  310,  311,  312,  313,  314,  315,  316,  317,  318
  319,  320,  321,  322,  323,  324,  325,  326,  327,  328,  329,  330,  331,  332,  333,  334
  335,  336,  337,  338,  339,  340,  341,  342,  343,  344,  345,  346,  347,  348,  349,  350
  351,  352,  353,  354,  355,  356,  357,  358,  359,  360,  361,  362,  363,  364,  365,  366
  367,  368,  369,  370,  371,  372,  373,  374,  375,  376,  377,  378,  379,  380,  381,  382
  383,  384,  385,  386,  387,  388,  389,  390,  391,  392,  393,  394,  395,  396,  397,  398
  399,  400,  401,  402,  403,  404,  405,  406,  407,  408,  409,  410,  411,  412,  413,  414
** ... 126 like lines cut
*Elset, elset=Set-1, instance=deg28-1
     1,    48,    49,    96,    97,   144,   145,   192,   193,   240,   241,   288,   289,   336,   337,   384
   385,   432,   433,   480,   481,   528,   529,   576,   577,   624,   625,   672,   673,   720,   721,   768
   769,   816,   817,   864,   865,   912,   913,   960,   961,  1008,  1009,  1056,  1057,  1104,  1105,  1152
  1153,  1154,  1155,  1156,  1157,  1158,  1159,  1160,  1161,  1162,  1163,  1164,  1165,  1166,  1167,  1168
  1169,  1170,  1171,  1172,  1173,  1174,  1175,  1176,  1177,  1178,  1179,  1180,  1181,  1182,  1183,  1184
  1185,  1186,  1187,  1188,  1189,  1190,  1191,  1192,  1193,  1194,  1195,  1196,  1197,  1198,  1199,  1200
  1201,  1248,  1249,  1296,  1297,  1344,  1345,  1392,  1393,  1440,  1441,  1488,  1489,  1536,  1537,  1584
  1585,  1632,  1633,  1680,  1681,  1728,  1729,  1776,  1777,  1824,  1825,  1872,  1873,  1920,  1921,  1968
  1969,  2016,  2017,  2064,  2065,  2112,  2113,  2160,  2161,  2208,  2209,  2256,  2257,  2304,  2305,  2352
  2353,  2354,  2355,  2356,  2357,  2358,  2359,  2360,  2361,  2362,  2363,  2364,  2365,  2366,  2367,  2368
  2369,  2370,  2371,  2372,  2373,  2374,  2375,  2376,  2377,  2378,  2379,  2380,  2381,  2382,  2383,  2384
  2385,  2386,  2387,  2388,  2389,  2390,  2391,  2392,  2393,  2394,  2395,  2396,  2397,  2398,  2399,  2400
  2401,  2448,  2449,  2496,  2497,  2544,  2545,  2592,  2593,  2640,  2641,  2688,  2689,  2736,  2737,  2784
  2785,  2832,  2833,  2880,  2881,  2928,  2929,  2976,  2977,  3024,  3025,  3072,  3073,  3120,  3121,  3168
  3169,  3216,  3217,  3264,  3265,  3312,  3313,  3360,  3361,  3408,  3409,  3456,  3457,  3504,  3505,  3552
  3553,  3554,  3555,  3556,  3557,  3558,  3559,  3560,  3561,  3562,  3563,  3564,  3565,  3566,  3567,  3568
  3569,  3570,  3571,  3572,  3573,  3574,  3575,  3576,  3577,  3578,  3579,  3580,  3581,  3582,  3583,  3584
  3585,  3586,  3587,  3588,  3589,  3590,  3591,  3592,  3593,  3594,  3595,  3596,  3597,  3598,  3599,  3600
  3601,  3648,  3649,  3696,  3697,  3744,  3745,  3792,  3793,  3840,  3841,  3888,  3889,  3936,  3937,  3984
  3985,  4032,  4033,  4080,  4081,  4128,  4129,  4176,  4177,  4224,  4225,  4272,  4273,  4320,  4321,  4368
** ... 111 like lines cut
*Nset, nset=Set-2, instance=deg28-1
    1,    2,    3,    4,    9,   10,   13,   14,   15,   16,   17,   18,   19,   20,   21,   22
   23,   24,   25,   26,   27,   28,   29,   30,   31,   32,   33,   34,   35,   36,   37,   38
   39,   40,   41,   42,   43,   44,   45,   46,   47,   48,   49,   50,   51,   52,   53,   54
   55,   56,   57,   58,   59,   60,   61,   62,   63,   64,   65,   66,   67,   68,   69,   70
   71,   72,   73,   74,   75,   76,   77,   78,   79,   80,   81,   82,   83,   84,   85,   86
   87,   88,   89,   90,   91,   92,   93,   94,   95,   96,   97,   98,   99,  100,  101,  102
  103,  104,  105,  106,  107,  108,  109,  110,  111,  112,  113,  114,  115,  116,  117,  118
  119,  120,  121,  122,  123,  124,  125,  126,  127,  128,  129,  130,  131,  132,  133,  134
  135,  136,  137,  138,  139,  140,  141,  142,  143,  144,  145,  146,  147,  148,  149,  150
  151,  152,  153,  154,  337,  338,  339,  340,  341,  342,  343,  344,  345,  346,  347,  348
  349,  350,  351,  352,  353,  354,  355,  356,  357,  358,  359,  360,  361,  362,  363,  364
  365,  366,  367,  368,  369,  370,  371,  372,  373,  374,  375,  376,  377,  378,  379,  380
  381,  382,  383,  474,  475,  476,  477,  478,  479,  480,  481,  482,  483,  484,  485,  486
  487,  488,  489,  490,  491,  492,  493,  494,  495,  496,  520,  521,  522,  523,  524,  525
  526,  527,  528,  529,  530,  531,  532,  533,  534,  535,  536,  537,  538,  539,  540,  541
  542,  543,  544,  545,  546,  547,  548,  549,  550,  551,  552,  553,  554,  555,  556,  557
  558,  559,  560,  561,  562,  563,  564,  565,  566,  567,  568,  569,  570,  571,  572,  573
  574,  575,  576,  577,  578,  579,  580,  581,  582,  583,  584,  585,  586,  587,  588,  589
  590,  591,  592,  593,  594,  595,  596,  597,  598,  599,  600,  601,  602,  603,  604,  605
  606,  607,  608,  609,  610,  611,  612,  613,  614,  615,  616,  617,  618,  619,  620,  621
** ... 134 like lines cut
*Elset, elset=Set-2, instance=deg28-1
     1,     2,     3,     4,     5,     6,     7,     8,     9,    10,    11,    12,    13,    14,    15,    16
    17,    18,    19,    20,    21,    22,    23,    24,    25,    26,    27,    28,    29,    30,    31,    32
    33,    34,    35,    36,    37,    38,    39,    40,    41,    42,    43,    44,    45,    46,    47,    48
    49,    50,    51,    52,    53,    54,    55,    56,    57,    58,    59,    60,    61,    62,    63,    64
    65,    66,    67,    68,    69,    70,    71,    72,    73,    74,    75,    76,    77,    78,    79,    80
    81,    82,    83,    84,    85,    86,    87,    88,    89,    90,    91,    92,    93,    94,    95,    96
    97,    98,    99,   100,   101,   102,   103,   104,   105,   106,   107,   108,   109,   110,   111,   112
   113,   114,   115,   116,   117,   118,   119,   120,   121,   122,   123,   124,   125,   126,   127,   128
   129,   130,   131,   132,   133,   134,   135,   136,   137,   138,   139,   140,   141,   142,   143,   144
   145,   146,   147,   148,   149,   150,   151,   152,   153,   154,   155,   156,   157,   158,   159,   160
   161,   162,   163,   164,   165,   166,   167,   168,   169,   170,   171,   172,   173,   174,   175,   176
   177,   178,   179,   180,   181,   182,   183,   184,   185,   186,   187,   188,   189,   190,   191,   192
   193,   194,   195,   196,   197,   198,   199,   200,   201,   202,   203,   204,   205,   206,   207,   208
   209,   210,   211,   212,   213,   214,   215,   216,   217,   218,   219,   220,   221,   222,   223,   224
   225,   226,   227,   228,   229,   230,   231,   232,   233,   234,   235,   236,   237,   238,   239,   240
   241,   242,   243,   244,   245,   246,   247,   248,   249,   250,   251,   252,   253,   254,   255,   256
   257,   258,   259,   260,   261,   262,   263,   264,   265,   266,   267,   268,   269,   270,   271,   272
   273,   274,   275,   276,   277,   278,   279,   280,   281,   282,   283,   284,   285,   286,   287,   288
   289,   290,   291,   292,   293,   294,   295,   296,   297,   298,   299,   300,   301,   302,   303,   304
   305,   306,   307,   308,   309,   310,   311,   312,   313,   314,   315,   316,   317,   318,   319,   320
** ... 127 like lines cut
*Elset, elset=_Surf-1_S5, internal, instance=deg28-1
 13681, 13682, 13683, 13684, 13685, 13686, 13687, 13688, 13689, 13690, 13691, 13692, 13693, 13694, 13695, 13696
 13697, 13698, 13699, 13700, 13701, 13702, 13703, 13704, 13705, 13706, 13707, 13708, 13709, 13710, 13711, 13712
 13713, 13714, 13715, 13716, 13717, 13718, 13719, 13720, 13721, 13722, 13723, 13724, 13725, 13726, 13727, 13728
 14209, 14210, 14211, 14212, 14213, 14214, 14215, 14216, 14217, 14218, 14219, 14220, 14221, 14222, 14223, 14224
 14225, 14226, 14227, 14228, 14229, 14230, 14231, 14232, 14233, 14234, 14235, 14236, 14237, 14238, 14239, 14240
 14241, 14242, 14243, 14244, 14245, 14246, 14247, 14248, 14249, 14250, 14251, 14252, 14253, 14254, 14255, 14256
 14737, 14738, 14739, 14740, 14741, 14742, 14743, 14744, 14745, 14746, 14747, 14748, 14749, 14750, 14751, 14752
 14753, 14754, 14755, 14756, 14757, 14758, 14759, 14760, 14761, 14762, 14763, 14764, 14765, 14766, 14767, 14768
 14769, 14770, 14771, 14772, 14773, 14774, 14775, 14776, 14777, 14778, 14779, 14780, 14781, 14782, 14783, 14784
 15265, 15266, 15267, 15268, 15269, 15270, 15271, 15272, 15273, 15274, 15275, 15276, 15277, 15278, 15279, 15280
 15281, 15282, 15283, 15284, 15285, 15286, 15287, 15288, 15289, 15290, 15291, 15292, 15293, 15294, 15295, 15296
 15297, 15298, 15299, 15300, 15301, 15302, 15303, 15304, 15305, 15306, 15307, 15308, 15309, 15310, 15311, 15312
 15793, 15794, 15795, 15796, 15797, 15798, 15799, 15800, 15801, 15802, 15803, 15804, 15805, 15806, 15807, 15808
 15809, 15810, 15811, 15812, 15813, 15814, 15815, 15816, 15817, 15818, 15819, 15820, 15821, 15822, 15823, 15824
 15825, 15826, 15827, 15828, 15829, 15830, 15831, 15832, 15833, 15834, 15835, 15836, 15837, 15838, 15839, 15840
 16321, 16322, 16323, 16324, 16325, 16326, 16327, 16328, 16329, 16330, 16331, 16332, 16333, 16334, 16335, 16336
 16337, 16338, 16339, 16340, 16341, 16342, 16343, 16344, 16345, 16346, 16347, 16348, 16349, 16350, 16351, 16352
 16353, 16354, 16355, 16356, 16357, 16358, 16359, 16360, 16361, 16362, 16363, 16364, 16365, 16366, 16367, 16368
 16849, 16850, 16851, 16852, 16853, 16854, 16855, 16856, 16857, 16858, 16859, 16860, 16861, 16862, 16863, 16864
 16865, 16866, 16867, 16868, 16869, 16870, 16871, 16872, 16873, 16874, 16875, 16876, 16877, 16878, 16879, 16880
** ... 52 like lines cut
*Surface, type=ELEMENT, name=Surf-1
_Surf-1_S5, S5
*End Assembly
** 
** MATERIALS
** 
*Material, name=Material-1
*Elastic
 31622.8, 0.2
** ----------------------------------------------------------------
** 
** STEP: Step-1
** 
*Step, name=Step-1, nlgeom=NO
*Static
0.1, 1., 1e-05, 1.
** 
** BOUNDARY CONDITIONS
** 
** Name: BC-1 Type: Symmetry/Antisymmetry/Encastre
*Boundary
Set-1, ZASYMM
** Name: BC-2 Type: Symmetry/Antisymmetry/Encastre
*Boundary
Set-2, ENCASTRE
** 
** LOADS
** 
** Name: Load-1   Type: Pressure
*Dsload
Surf-1, P, 5.
** 
** OUTPUT REQUESTS
** 
*Restart, write, frequency=0
** 
** FIELD OUTPUT: F-Output-2
** 
*Output, field
*Node Output
U, 
*Element Output, directions=YES
E, S
** 
** FIELD OUTPUT: F-Output-1
** 
*Output, field, variable=PRESELECT
** 
** HISTORY OUTPUT: H-Output-1
** 
*Output, history, variable=PRESELECT
*End Step
