*Heading
** Job name: 28deg Model name: 28deg
** Generated by: Abaqus/CAE 2018
*Preprint, echo=NO, model=NO, history=NO, contact=NO
**
** PARTS
**
*Part, name=deg28
*End Part
**  
**
** ASSEMBLY
**
*Assembly, name=Assembly
**  
*Instance, name=deg28-1, part=deg28
*Node
      1,         120.,         240.,           0.
      2,         120.,           0.,           0.
      3,           0.,           0.,           0.
      4,           0.,         240.,           0.
      5,         120.,           0.,          80.
      6,           0.,           0.,   16.1900005
      7,           0.,         240.,   16.1900005
      8,         120.,         240.,          80.
      9,         240.,           0.,           0.
     10,         240.,         240.,           0.
     11,         240.,         240.,          80.
     12,         240.,           0.,          80.
     13,         120.,         235.,           0.
     14,         120.,         230.,           0.
     15,         120.,         225.,           0.
     16,         120.,         220.,           0.
     17,         120.,         215.,           0.
     18,         120.,         210.,           0.
     19,         120.,         205.,           0.
     20,         120.,         200.,           0.
** ... 26930 like lines cut
*Element, type=C3D8R
    1,   314,  3225,  7070,  2793,     1,    13,   537,   154
    2,  3225,  3226,  7071,  7070,    13,    14,   538,   537
    3,  3226,  3227,  7072,  7071,    14,    15,   539,   538
    4,  3227,  3228,  7073,  7072,    15,    16,   540,   539
    5,  3228,  3229,  7074,  7073,    16,    17,   541,   540
    6,  3229,  3230,  7075,  7074,    17,    18,   542,   541
    7,  3230,  3231,  7076,  7075,    18,    19,   543,   542
    8,  3231,  3232,  7077,  7076,    19,    20,   544,   543
    9,  3232,  3233,  7078,  7077,    20,    21,   545,   544
   10,  3233,  3234,  7079,  7078,    21,    22,   546,   545
   11,  3234,  3235,  7080,  7079,    22,    23,   547,   546
   12,  3235,  3236,  7081,  7080,    23,    24,   548,   547
   13,  3236,  3237,  7082,  7081,    24,    25,   549,   548
   14,  3237,  3238,  7083,  7082,    25,    26,   550,   549
   15,  3238,  3239,  7084,  7083,    26,    27,   551,   550
   16,  3239,  3240,  7085,  7084,    27,    28,   552,   551
   17,  3240,  3241,  7086,  7085,    28,    29,   553,   552
   18,  3241,  3242,  7087,  7086,    29,    30,   554,   553
   19,  3242,  3243,  7088,  7087,    30,    31,   555,   554
   20,  3243,  3244,  7089,  7088,    31,    32,   556,   555
** ... 23500 like lines cut
*Nset, nset=Set-1, generate
     1,  26950,      1
*Elset, elset=Set-1, generate
     1,  23520,      1
** Section: Section-1
*Solid Section, elset=Set-1, material=Material-1
,
*End Instance
**  
*Nset, nset=Set-1, instance=deg28-1
    1,    2,    3,    4,    5,    6,    7,    8,    9,   10,   11,   12,   60,   61,   62,   63
   64,   65,   66,   67,   68,   69,   70,   71,   72,   73,   74,   75,   76,   77,   78,   79
   80,   81,   82,   83,   84,   85,   86,   87,   88,   89,   90,   91,   92,   93,   94,   95
   96,   97,   98,   99,  100,  101,  102,  103,  104,  105,  106,  107,  108,  109,  110,  111
  112,  113,  114,  115,  116,  117,  118,  119,  120,  121,  122,  123,  124,  125,  126,  127
  128,  129,  130,  131,  132,  133,  134,  135,  136,  137,  138,  139,  140,  141,  142,  143
  144,  145,  146,  147,  148,  149,  150,  151,  152,  153,  154,  202,  203,  204,  205,  206
  207,  208,  209,  210,  211,  212,  213,  214,  215,  216,  217,  218,  219,  220,  221,  222
  223,  224,  225,  226,  227,  228,  229,  230,  231,  232,  233,  234,  235,  236,  237,  238
  239,  240,  241,  242,  243,  244,  245,  246,  247,  248,  249,  250,  251,  252,  253,  254
  255,  256,  257,  258,  259,  260,  261,  262,  263,  264,  265,  266,  267,  268,  269,  270
  271,  272,  273,  274,  275,  276,  277,  278,  279,  280,  281,  282,  283,  284,  285,  286
  287,  288,  289,  290,  291,  292,  293,  294,  295,  296,  297,  298,  299,  300,  301,  302
  303,  304,  305,  306,  307,  308,  309,  310,  311,  312,  313,  314,  315,  316,  317,  318
  319,  320,  321,  322,  323,  324,  325,  326,  327,  328,  329,  330,  331,  332,  333,  334
  335,  336,  337,  338,  339,  340,  341,  342,  343,  344,  345,  346,  347,  348,  349,  350
  351,  352,  353,  354,  355,  356,  357,  358,  359,  360,  361,  362,  363,  364,  365,  366
  367,  368,  369,  370,  371,  372,  373,  374,  375,  376,  377,  378,  379,  380,  381,  382
  383,  384,  385,  386,  387,  388,  389,  390,  391,  392,  393,  394,  395,  396,  397,  398
  399,  400,  401,  402,  403,  404,  405,  406,  407,  408,  409,  410,  411,  412,  413,  414
** ... 114 like lines cut
*Elset, elset=Set-1, instance=deg28-1
     1,    48,    49,    96,    97,   144,   145,   192,   193,   240,   241,   288,   289,   336,   337,   384
   385,   432,   433,   480,   481,   528,   529,   576,   577,   624,   625,   672,   673,   720,   721,   768
   769,   816,   817,   864,   865,   912,   913,   960,   961,  1008,  1009,  1056,  1057,  1104,  1105,  1152
  1153,  1154,  1155,  1156,  1157,  1158,  1159,  1160,  1161,  1162,  1163,  1164,  1165,  1166,  1167,  1168
  1169,  1170,  1171,  1172,  1173,  1174,  1175,  1176,  1177,  1178,  1179,  1180,  1181,  1182,  1183,  1184
  1185,  1186,  1187,  1188,  1189,  1190,  1191,  1192,  1193,  1194,  1195,  1196,  1197,  1198,  1199,  1200
  1201,  1248,  1249,  1296,  1297,  1344,  1345,  1392,  1393,  1440,  1441,  1488,  1489,  1536,  1537,  1584
  1585,  1632,  1633,  1680,  1681,  1728,  1729,  1776,  1777,  1824,  1825,  1872,  1873,  1920,  1921,  1968
  1969,  2016,  2017,  2064,  2065,  2112,  2113,  2160,  2161,  2208,  2209,  2256,  2257,  2304,  2305,  2352
  2353,  2354,  2355,  2356,  2357,  2358,  2359,  2360,  2361,  2362,  2363,  2364,  2365,  2366,  2367,  2368
  2369,  2370,  2371,  2372,  2373,  2374,  2375,  2376,  2377,  2378,  2379,  2380,  2381,  2382,  2383,  2384
  2385,  2386,  2387,  2388,  2389,  2390,  2391,  2392,  2393,  2394,  2395,  2396,  2397,  2398,  2399,  2400
  2401,  2448,  2449,  2496,  2497,  2544,  2545,  2592,  2593,  2640,  2641,  2688,  2689,  2736,  2737,  2784
  2785,  2832,  2833,  2880,  2881,  2928,  2929,  2976,  2977,  3024,  3025,  3072,  3073,  3120,  3121,  3168
  3169,  3216,  3217,  3264,  3265,  3312,  3313,  3360,  3361,  3408,  3409,  3456,  3457,  3504,  3505,  3552
  3553,  3554,  3555,  3556,  3557,  3558,  3559,  3560,  3561,  3562,  3563,  3564,  3565,  3566,  3567,  3568
  3569,  3570,  3571,  3572,  3573,  3574,  3575,  3576,  3577,  3578,  3579,  3580,  3581,  3582,  3583,  3584
  3585,  3586,  3587,  3588,  3589,  3590,  3591,  3592,  3593,  3594,  3595,  3596,  3597,  3598,  3599,  3600
  3601,  3648,  3649,  3696,  3697,  3744,  3745,  3792,  3793,  3840,  3841,  3888,  3889,  3936,  3937,  3984
  3985,  4032,  4033,  4080,  4081,  4128,  4129,  4176,  4177,  4224,  4225,  4272,  4273,  4320,  4321,  4368
** ... 99 like lines cut
*Nset, nset=Set-2, instance=deg28-1
    1,    2,    3,    4,    9,   10,   13,   14,   15,   16,   17,   18,   19,   20,   21,   22
   23,   24,   25,   26,   27,   28,   29,   30,   31,   32,   33,   34,   35,   36,   37,   38
   39,   40,   41,   42,   43,   44,   45,   46,   47,   48,   49,   50,   51,   52,   53,   54
   55,   56,   57,   58,   59,   60,   61,   62,   63,   64,   65,   66,   67,   68,   69,   70
   71,   72,   73,   74,   75,   76,   77,   78,   79,   80,   81,   82,   83,   84,   85,   86
   87,   88,   89,   90,   91,   92,   93,   94,   95,   96,   97,   98,   99,  100,  101,  102
  103,  104,  105,  106,  107,  108,  109,  110,  111,  112,  113,  114,  115,  116,  117,  118
  119,  120,  121,  122,  123,  124,  125,  126,  127,  128,  129,  130,  131,  132,  133,  134
  135,  136,  137,  138,  139,  140,  141,  142,  143,  144,  145,  146,  147,  148,  149,  150
  151,  152,  153,  154,  333,  334,  335,  336,  337,  338,  339,  340,  341,  342,  343,  344
  345,  346,  347,  348,  349,  350,  351,  352,  353,  354,  355,  356,  357,  358,  359,  360
  361,  362,  363,  364,  365,  366,  367,  368,  369,  370,  371,  372,  373,  374,  375,  376
  377,  378,  379,  468,  469,  470,  471,  472,  473,  474,  475,  476,  477,  478,  479,  480
  481,  482,  483,  484,  485,  486,  487,  488,  489,  490,  514,  515,  516,  517,  518,  519
  520,  521,  522,  523,  524,  525,  526,  527,  528,  529,  530,  531,  532,  533,  534,  535
  536,  537,  538,  539,  540,  541,  542,  543,  544,  545,  546,  547,  548,  549,  550,  551
  552,  553,  554,  555,  556,  557,  558,  559,  560,  561,  562,  563,  564,  565,  566,  567
  568,  569,  570,  571,  572,  573,  574,  575,  576,  577,  578,  579,  580,  581,  582,  583
  584,  585,  586,  587,  588,  589,  590,  591,  592,  593,  594,  595,  596,  597,  598,  599
  600,  601,  602,  603,  604,  605,  606,  607,  608,  609,  610,  611,  612,  613,  614,  615
** ... 134 like lines cut
*Elset, elset=Set-2, instance=deg28-1
     1,     2,     3,     4,     5,     6,     7,     8,     9,    10,    11,    12,    13,    14,    15,    16
    17,    18,    19,    20,    21,    22,    23,    24,    25,    26,    27,    28,    29,    30,    31,    32
    33,    34,    35,    36,    37,    38,    39,    40,    41,    42,    43,    44,    45,    46,    47,    48
    49,    50,    51,    52,    53,    54,    55,    56,    57,    58,    59,    60,    61,    62,    63,    64
    65,    66,    67,    68,    69,    70,    71,    72,    73,    74,    75,    76,    77,    78,    79,    80
    81,    82,    83,    84,    85,    86,    87,    88,    89,    90,    91,    92,    93,    94,    95,    96
    97,    98,    99,   100,   101,   102,   103,   104,   105,   106,   107,   108,   109,   110,   111,   112
   113,   114,   115,   116,   117,   118,   119,   120,   121,   122,   123,   124,   125,   126,   127,   128
   129,   130,   131,   132,   133,   134,   135,   136,   137,   138,   139,   140,   141,   142,   143,   144
   145,   146,   147,   148,   149,   150,   151,   152,   153,   154,   155,   156,   157,   158,   159,   160
   161,   162,   163,   164,   165,   166,   167,   168,   169,   170,   171,   172,   173,   174,   175,   176
   177,   178,   179,   180,   181,   182,   183,   184,   185,   186,   187,   188,   189,   190,   191,   192
   193,   194,   195,   196,   197,   198,   199,   200,   201,   202,   203,   204,   205,   206,   207,   208
   209,   210,   211,   212,   213,   214,   215,   216,   217,   218,   219,   220,   221,   222,   223,   224
   225,   226,   227,   228,   229,   230,   231,   232,   233,   234,   235,   236,   237,   238,   239,   240
   241,   242,   243,   244,   245,   246,   247,   248,   249,   250,   251,   252,   253,   254,   255,   256
   257,   258,   259,   260,   261,   262,   263,   264,   265,   266,   267,   268,   269,   270,   271,   272
   273,   274,   275,   276,   277,   278,   279,   280,   281,   282,   283,   284,   285,   286,   287,   288
   289,   290,   291,   292,   293,   294,   295,   296,   297,   298,   299,   300,   301,   302,   303,   304
   305,   306,   307,   308,   309,   310,   311,   312,   313,   314,   315,   316,   317,   318,   319,   320
** ... 127 like lines cut
*Elset, elset=_Surf-1_S5, internal, instance=deg28-1
 12433, 12434, 12435, 12436, 12437, 12438, 12439, 12440, 12441, 12442, 12443, 12444, 12445, 12446, 12447, 12448
 12449, 12450, 12451, 12452, 12453, 12454, 12455, 12456, 12457, 12458, 12459, 12460, 12461, 12462, 12463, 12464
 12465, 12466, 12467, 12468, 12469, 12470, 12471, 12472, 12473, 12474, 12475, 12476, 12477, 12478, 12479, 12480
 12913, 12914, 12915, 12916, 12917, 12918, 12919, 12920, 12921, 12922, 12923, 12924, 12925, 12926, 12927, 12928
 12929, 12930, 12931, 12932, 12933, 12934, 12935, 12936, 12937, 12938, 12939, 12940, 12941, 12942, 12943, 12944
 12945, 12946, 12947, 12948, 12949, 12950, 12951, 12952, 12953, 12954, 12955, 12956, 12957, 12958, 12959, 12960
 13393, 13394, 13395, 13396, 13397, 13398, 13399, 13400, 13401, 13402, 13403, 13404, 13405, 13406, 13407, 13408
 13409, 13410, 13411, 13412, 13413, 13414, 13415, 13416, 13417, 13418, 13419, 13420, 13421, 13422, 13423, 13424
 13425, 13426, 13427, 13428, 13429, 13430, 13431, 13432, 13433, 13434, 13435, 13436, 13437, 13438, 13439, 13440
 13873, 13874, 13875, 13876, 13877, 13878, 13879, 13880, 13881, 13882, 13883, 13884, 13885, 13886, 13887, 13888
 13889, 13890, 13891, 13892, 13893, 13894, 13895, 13896, 13897, 13898, 13899, 13900, 13901, 13902, 13903, 13904
 13905, 13906, 13907, 13908, 13909, 13910, 13911, 13912, 13913, 13914, 13915, 13916, 13917, 13918, 13919, 13920
 14353, 14354, 14355, 14356, 14357, 14358, 14359, 14360, 14361, 14362, 14363, 14364, 14365, 14366, 14367, 14368
 14369, 14370, 14371, 14372, 14373, 14374, 14375, 14376, 14377, 14378, 14379, 14380, 14381, 14382, 14383, 14384
 14385, 14386, 14387, 14388, 14389, 14390, 14391, 14392, 14393, 14394, 14395, 14396, 14397, 14398, 14399, 14400
 14833, 14834, 14835, 14836, 14837, 14838, 14839, 14840, 14841, 14842, 14843, 14844, 14845, 14846, 14847, 14848
 14849, 14850, 14851, 14852, 14853, 14854, 14855, 14856, 14857, 14858, 14859, 14860, 14861, 14862, 14863, 14864
 14865, 14866, 14867, 14868, 14869, 14870, 14871, 14872, 14873, 14874, 14875, 14876, 14877, 14878, 14879, 14880
 15313, 15314, 15315, 15316, 15317, 15318, 15319, 15320, 15321, 15322, 15323, 15324, 15325, 15326, 15327, 15328
 15329, 15330, 15331, 15332, 15333, 15334, 15335, 15336, 15337, 15338, 15339, 15340, 15341, 15342, 15343, 15344
** ... 52 like lines cut
*Surface, type=ELEMENT, name=Surf-1
_Surf-1_S5, S5
*End Assembly
** 
** MATERIALS
** 
*Material, name=Material-1
*Elastic
 31622.8, 0.2
** ----------------------------------------------------------------
** 
** STEP: Step-1
** 
*Step, name=Step-1, nlgeom=NO
*Static
0.1, 1., 1e-05, 1.
** 
** BOUNDARY CONDITIONS
** 
** Name: BC-1 Type: Symmetry/Antisymmetry/Encastre
*Boundary
Set-1, ZASYMM
** Name: BC-2 Type: Symmetry/Antisymmetry/Encastre
*Boundary
Set-2, ENCASTRE
** 
** LOADS
** 
** Name: Load-1   Type: Pressure
*Dsload
Surf-1, P, 5.
** 
** OUTPUT REQUESTS
** 
*Restart, write, frequency=0
** 
** FIELD OUTPUT: F-Output-2
** 
*Output, field
*Node Output
U, 
*Element Output, directions=YES
E, S
** 
** FIELD OUTPUT: F-Output-1
** 
*Output, field, variable=PRESELECT
** 
** HISTORY OUTPUT: H-Output-1
** 
*Output, history, variable=PRESELECT
*End Step
