*Heading
** Job name: 30 Model name: 30
** Generated by: Abaqus/CAE 2018
*Preprint, echo=NO, model=NO, history=NO, contact=NO
**
** PARTS
**
*Part, name=P30
*End Part
**  
**
** ASSEMBLY
**
*Assembly, name=Assembly
**  
*Instance, name=P30-1, part=P30
*Node
      1,   268.467865,        232.5,   69.2307663
      2,   268.467865,        232.5,           0.
      3,   204.883377,   269.210541,           0.
      4,   204.883377,   269.210541,   69.2307663
      5,   268.467865,         155.,   69.2307663
      6,   268.467865,         155.,           0.
      7,   130.089096,   155.270798,           0.
      8,    81.957489,   154.973328,   71.4133682
      9,   134.233932,         310.,           0.
     10,   134.233932,         310.,   69.2307663
     11,   59.6595268,   266.944458,           0.
     12,   29.0525551,   249.273499,   79.4117661
     13,   134.233932,         310.,         100.
     14,   204.883377,   269.210541,         100.
     15,    39.475811,   255.291367,         100.
     16,   69.7337341,   155.504517,         100.
     17,   268.467865,        232.5,         100.
     18,   268.467865,         155.,         100.
     19,   268.467865,         77.5,           0.
     20,   204.883377,   40.7894745,           0.
** ... 7953 like lines cut
*Element, type=C3D8R
   1,  119,  956, 3600,  812,    1,   46,  684,   77
   2,  956,  957, 3601, 3600,   46,   47,  685,  684
   3,  957,  958, 3602, 3601,   47,   48,  686,  685
   4,  958,  959, 3603, 3602,   48,   49,  687,  686
   5,  959,  960, 3604, 3603,   49,   50,  688,  687
   6,  960,  961, 3605, 3604,   50,   51,  689,  688
   7,  961,  962, 3606, 3605,   51,   52,  690,  689
   8,  962,  963, 3607, 3606,   52,   53,  691,  690
   9,  963,  137,  884, 3607,   53,    2,   54,  691
  10,  812, 3600, 3608,  813,   77,  684,  692,   76
  11, 3600, 3601, 3609, 3608,  684,  685,  693,  692
  12, 3601, 3602, 3610, 3609,  685,  686,  694,  693
  13, 3602, 3603, 3611, 3610,  686,  687,  695,  694
  14, 3603, 3604, 3612, 3611,  687,  688,  696,  695
  15, 3604, 3605, 3613, 3612,  688,  689,  697,  696
  16, 3605, 3606, 3614, 3613,  689,  690,  698,  697
  17, 3606, 3607, 3615, 3614,  690,  691,  699,  698
  18, 3607,  884,  885, 3615,  691,   54,   55,  699
  19,  813, 3608, 3616,  814,   76,  692,  700,   75
  20, 3608, 3609, 3617, 3616,  692,  693,  701,  700
** ... 6600 like lines cut
*Nset, nset=Set-1, generate
    1,  7973,     1
*Elset, elset=Set-1, generate
    1,  6620,     1
** Section: Section-1
*Solid Section, elset=Set-1, material=Material-1
,
*End Instance
**  
*Nset, nset=Set-1, instance=P30-1
    1,    2,    3,    4,    5,    6,    9,   10,   11,   12,   13,   14,   15,   17,   18,   19
   20,   21,   22,   23,   24,   25,   26,   27,   28,   29,   30,   31,   32,   33,   34,   35
   37,   39,   40,   41,   42,   43,   44,   45,   46,   47,   48,   49,   50,   51,   52,   53
   54,   55,   56,   57,   58,   59,   60,   61,   62,   63,   64,   65,   66,   67,   68,   69
   70,   71,   72,   73,   74,   75,   76,   77,   78,   79,   80,   81,   82,   83,   84,   85
  119,  120,  121,  122,  123,  124,  125,  126,  127,  137,  138,  139,  140,  141,  142,  143
  144,  145,  146,  147,  148,  149,  150,  151,  152,  153,  154,  155,  156,  157,  158,  159
  160,  161,  162,  163,  164,  165,  166,  167,  168,  169,  170,  171,  181,  182,  183,  184
  185,  186,  187,  188,  198,  199,  200,  201,  202,  203,  204,  205,  206,  207,  208,  209
  210,  211,  212,  213,  214,  215,  216,  217,  218,  219,  220,  221,  222,  223,  224,  225
  226,  227,  228,  229,  230,  231,  232,  233,  255,  256,  257,  258,  259,  260,  261,  262
  263,  264,  265,  266,  267,  268,  269,  270,  271,  272,  273,  274,  283,  284,  285,  286
  287,  288,  289,  290,  291,  292,  293,  294,  295,  296,  297,  298,  299,  300,  301,  302
  303,  304,  305,  306,  307,  308,  309,  310,  311,  321,  322,  323,  324,  325,  326,  327
  328,  329,  330,  331,  332,  333,  334,  335,  336,  337,  347,  348,  349,  350,  351,  352
  353,  354,  355,  356,  357,  358,  359,  360,  361,  362,  363,  364,  365,  366,  367,  368
  369,  370,  371,  372,  373,  374,  375,  376,  377,  378,  379,  380,  390,  391,  392,  393
  394,  395,  396,  397,  398,  399,  400,  401,  402,  403,  404,  405,  406,  407,  417,  418
  419,  420,  421,  422,  423,  424,  425,  426,  427,  428,  429,  430,  431,  432,  433,  434
  435,  436,  437,  438,  439,  440,  441,  442,  443,  444,  445,  446,  447,  448,  456,  457
** ... 74 like lines cut
*Elset, elset=Set-1, instance=P30-1
    1,    2,    3,    4,    5,    6,    7,    8,    9,   10,   11,   12,   13,   14,   15,   16
   17,   18,   19,   20,   21,   22,   23,   24,   25,   26,   27,   28,   29,   30,   31,   32
   33,   34,   35,   36,   37,   38,   39,   40,   41,   42,   43,   44,   45,   46,   47,   48
   49,   50,   51,   52,   53,   54,   55,   56,   57,   58,   59,   60,   61,   62,   63,   64
   65,   66,   67,   68,   69,   70,   71,   72,   73,   74,   75,   76,   77,   78,   79,   80
   81,   82,   83,   84,   85,   86,   87,   88,   89,   90,  163,  164,  165,  166,  167,  168
  169,  170,  171,  244,  245,  246,  247,  248,  249,  250,  251,  252,  325,  326,  327,  328
  329,  330,  331,  332,  333,  406,  407,  408,  409,  410,  411,  412,  413,  414,  487,  488
  489,  490,  491,  492,  493,  494,  495,  568,  569,  570,  571,  572,  573,  574,  575,  576
  649,  650,  651,  652,  653,  654,  655,  656,  657,  730,  731,  732,  733,  734,  735,  736
  737,  738,  811,  812,  813,  814,  815,  816,  817,  818,  819,  820,  821,  822,  823,  824
  825,  826,  827,  828,  829,  830,  831,  832,  833,  834,  835,  836,  837,  838,  839,  840
  841,  842,  843,  844,  845,  846,  847,  848,  849,  850,  851,  852,  853,  854,  855,  856
  857,  858,  859,  860,  861,  862,  863,  864,  865,  866,  867,  868,  869,  870,  871,  872
  873,  874,  875,  876,  877,  878,  879,  880,  881,  882,  883,  884,  885,  886,  887,  888
  889,  890,  891,  892,  893,  894,  895,  896,  897,  898,  899,  900,  910,  920,  930,  940
  950,  960,  970,  980,  990, 1000, 1010, 1020, 1030, 1040, 1050, 1060, 1070, 1080, 1090, 1100
 1110, 1120, 1130, 1140, 1150, 1160, 1170, 1180, 1190, 1200, 1210, 1220, 1230, 1240, 1250, 1260
 1270, 1280, 1290, 1300, 1310, 1320, 1330, 1340, 1350, 1360, 1370, 1380, 1390, 1400, 1410, 1420
 1430, 1440, 1450, 1460, 1470, 1480, 1490, 1500, 1510, 1520, 1530, 1540, 1550, 1560, 1570, 1580
** ... 62 like lines cut
*Nset, nset=Set-2, instance=P30-1
    2,    3,    6,    7,    9,   11,   19,   20,   23,   24,   27,   28,   31,   54,   55,   56
   57,   58,   59,   60,   61,   86,   87,   88,   89,   90,   91,   92,   93,  128,  129,  130
  131,  132,  133,  134,  135,  136,  137,  138,  139,  140,  141,  142,  143,  144,  145,  146
  147,  148,  149,  150,  151,  152,  153,  154,  172,  173,  174,  175,  176,  177,  178,  179
  180,  207,  208,  209,  210,  211,  212,  213,  214,  215,  295,  296,  297,  298,  299,  300
  301,  302,  303,  304,  305,  306,  307,  308,  309,  310,  311,  312,  313,  314,  315,  316
  317,  318,  319,  320,  363,  364,  365,  366,  367,  368,  369,  370,  371,  372,  373,  374
  375,  376,  377,  378,  379,  380,  381,  382,  383,  384,  385,  386,  387,  388,  389,  433
  434,  435,  436,  437,  438,  439,  440,  441,  442,  443,  444,  445,  446,  447,  448,  449
  450,  451,  452,  453,  454,  455,  495,  496,  497,  498,  499,  500,  501,  502,  503,  504
  505,  506,  507,  508,  509,  510,  884,  885,  886,  887,  888,  889,  890,  891,  892,  893
  894,  895,  896,  897,  898,  899,  900,  901,  902,  903,  904,  905,  906,  907,  908,  909
  910,  911,  912,  913,  914,  915,  916,  917,  918,  919,  920,  921,  922,  923,  924,  925
  926,  927,  928,  929,  930,  931,  932,  933,  934,  935,  936,  937,  938,  939,  940,  941
  942,  943,  944,  945,  946,  947,  948,  949,  950,  951,  952,  953,  954,  955, 1316, 1317
 1318, 1319, 1320, 1321, 1322, 1323, 1324, 1325, 1326, 1327, 1328, 1329, 1330, 1331, 1332, 1333
 1334, 1335, 1336, 1337, 1338, 1339, 1340, 1341, 1342, 1343, 1344, 1345, 1346, 1347, 1348, 1349
 1350, 1351, 1352, 1353, 1354, 1355, 1356, 1357, 1358, 1359, 1360, 1361, 1362, 1363, 1364, 1365
 1366, 1367, 1368, 1369, 1370, 1371, 1372, 1373, 1374, 1375, 1376, 1377, 1378, 1379, 1380, 1381
 1382, 1383, 1384, 1385, 1386, 1387, 1388, 1389, 1390, 1391, 1392, 1393, 1394, 1395, 1396, 1814
** ... 18 like lines cut
*Elset, elset=Set-2, instance=P30-1
    9,   18,   27,   36,   45,   54,   63,   72,   81,   90,   99,  108,  117,  126,  135,  144
  153,  162,  171,  180,  189,  198,  207,  216,  225,  234,  243,  252,  261,  270,  279,  288
  297,  306,  315,  324,  333,  342,  351,  360,  369,  378,  387,  396,  405,  414,  423,  432
  441,  450,  459,  468,  477,  486,  495,  504,  513,  522,  531,  540,  549,  558,  567,  576
  585,  594,  603,  612,  621,  630,  639,  648,  657,  666,  675,  684,  693,  702,  711,  720
  729,  738,  747,  756,  765,  774,  783,  792,  801,  810,  811,  812,  813,  814,  815,  816
  817,  818,  819,  820,  901,  902,  903,  904,  905,  906,  907,  908,  909,  910,  991,  992
  993,  994,  995,  996,  997,  998,  999, 1000, 1081, 1082, 1083, 1084, 1085, 1086, 1087, 1088
 1089, 1090, 1171, 1172, 1173, 1174, 1175, 1176, 1177, 1178, 1179, 1180, 1261, 1262, 1263, 1264
 1265, 1266, 1267, 1268, 1269, 1270, 1351, 1352, 1353, 1354, 1355, 1356, 1357, 1358, 1359, 1360
 1441, 1442, 1443, 1444, 1445, 1446, 1447, 1448, 1449, 1450, 1531, 1532, 1533, 1534, 1535, 1536
 1537, 1538, 1539, 1540, 1621, 1622, 1623, 1624, 1625, 1626, 1627, 1628, 1629, 1630, 2471, 2472
 2473, 2474, 2475, 2476, 2477, 2478, 2479, 2480, 2481, 2482, 2483, 2484, 2485, 2486, 2487, 2488
 2489, 2490, 2491, 2492, 2493, 2494, 2495, 2496, 2497, 2498, 2499, 2500, 2501, 2502, 2503, 2504
 2505, 2506, 2507, 2508, 2509, 2510, 2511, 2512, 2513, 2514, 2515, 2516, 2517, 2518, 2519, 2520
 2521, 2522, 2523, 2524, 2525, 2526, 2527, 2528, 2529, 2530, 2531, 2532, 2533, 2534, 2535, 2536
 2537, 2538, 2539, 2540, 2541, 2542, 2543, 2544, 2545, 2546, 2547, 2548, 2549, 2550, 2551, 2552
 2553, 2554, 2555, 2556, 2557, 2558, 2559, 2560, 3281, 3282, 3283, 3284, 3285, 3286, 3287, 3288
 3289, 3290, 3291, 3292, 3293, 3294, 3295, 3296, 3297, 3298, 3299, 3300, 3301, 3302, 3303, 3304
 3305, 3306, 3307, 3308, 3309, 3310, 3311, 3312, 3313, 3314, 3315, 3316, 3317, 3318, 3319, 3320
** ... 14 like lines cut
*Elset, elset=_Surf-1_S4, internal, instance=P30-1, generate
 1714,  2110,     4
*Elset, elset=_Surf-1_S3, internal, instance=P30-1
 2111, 2112, 2113, 2114, 2115, 2116, 2117, 2118, 2119, 2147, 2148, 2149, 2150, 2151, 2152, 2153
 2154, 2155, 2183, 2184, 2185, 2186, 2187, 2188, 2189, 2190, 2191, 2219, 2220, 2221, 2222, 2223
 2224, 2225, 2226, 2227, 2255, 2256, 2257, 2258, 2259, 2260, 2261, 2262, 2263, 2291, 2292, 2293
 2294, 2295, 2296, 2297, 2298, 2299, 2327, 2328, 2329, 2330, 2331, 2332, 2333, 2334, 2335, 2363
 2364, 2365, 2366, 2367, 2368, 2369, 2370, 2371, 2399, 2400, 2401, 2402, 2403, 2404, 2405, 2406
 2407, 2435, 2436, 2437, 2438, 2439, 2440, 2441, 2442, 2443, 5621, 5622, 5623, 5624, 5625, 5626
 5627, 5628, 5629, 5630, 5661, 5662, 5663, 5664, 5665, 5666, 5667, 5668, 5669, 5670, 5701, 5702
 5703, 5704, 5705, 5706, 5707, 5708, 5709, 5710, 5741, 5742, 5743, 5744, 5745, 5746, 5747, 5748
 5749, 5750, 5781, 5782, 5783, 5784, 5785, 5786, 5787, 5788, 5789, 5790, 5821, 5822, 5823, 5824
 5825, 5826, 5827, 5828, 5829, 5830, 5861, 5862, 5863, 5864, 5865, 5866, 5867, 5868, 5869, 5870
 5901, 5902, 5903, 5904, 5905, 5906, 5907, 5908, 5909, 5910, 5941, 5942, 5943, 5944, 5945, 5946
 5947, 5948, 5949, 5950
*Elset, elset=_Surf-1_S2, internal, instance=P30-1
 5981, 5982, 5983, 5984, 5985, 5986, 5987, 5988, 5989, 5990, 6021, 6022, 6023, 6024, 6025, 6026
 6027, 6028, 6029, 6030, 6061, 6062, 6063, 6064, 6065, 6066, 6067, 6068, 6069, 6070, 6071, 6072
 6073, 6074, 6075, 6076, 6077, 6078, 6079, 6080, 6081, 6082, 6083, 6084, 6085, 6086, 6087, 6088
 6089, 6090, 6091, 6092, 6093, 6094, 6095, 6096, 6097, 6098, 6099, 6100, 6101, 6102, 6103, 6104
 6105, 6106, 6107, 6108, 6109, 6110, 6111, 6112, 6113, 6114, 6115, 6116, 6117, 6118, 6119, 6120
 6121, 6122, 6123, 6124, 6125, 6126, 6127, 6128, 6129, 6130, 6131, 6132, 6133, 6134, 6135, 6136
 6137, 6138, 6139, 6140, 6141, 6142, 6143, 6144, 6145, 6146, 6147, 6148, 6149, 6150, 6151, 6152
 6153, 6154, 6155, 6156, 6157, 6158, 6159, 6160
*Surface, type=ELEMENT, name=Surf-1
_Surf-1_S4, S4
_Surf-1_S3, S3
_Surf-1_S2, S2
*End Assembly
** 
** MATERIALS
** 
*Material, name=Material-1
*Elastic
 31622.8, 0.2
** ----------------------------------------------------------------
** 
** STEP: Step-1
** 
*Step, name=Step-1, nlgeom=NO
*Static
0.1, 1., 1e-05, 1.
** 
** BOUNDARY CONDITIONS
** 
** Name: BC-1 Type: Symmetry/Antisymmetry/Encastre
*Boundary
Set-1, ZASYMM
** Name: BC-2 Type: Symmetry/Antisymmetry/Encastre
*Boundary
Set-2, ENCASTRE
** 
** LOADS
** 
** Name: Load-1   Type: Pressure
*Dsload
Surf-1, P, 0.8
** 
** OUTPUT REQUESTS
** 
*Restart, write, frequency=0
** 
** FIELD OUTPUT: F-Output-2
** 
*Output, field
*Node Output
U, 
*Element Output, directions=YES
E, S
** 
** FIELD OUTPUT: F-Output-1
** 
*Output, field, variable=PRESELECT
** 
** HISTORY OUTPUT: H-Output-1
** 
*Output, history, variable=PRESELECT
*End Step
