*Heading
** Job name: 30S Model name: 30
** Generated by: Abaqus/CAE 2018
*Preprint, echo=NO, model=NO, history=NO, contact=NO
**
** PARTS
**
*Part, name=P30
*End Part
**  
**
** ASSEMBLY
**
*Assembly, name=Assembly
**  
*Instance, name=P30-1, part=P30
*Node
      1,         250.,         250.,          50.
      2,         220.,         250.,         100.
      3,         250.,         250.,         100.
      4,         250.,           0.,          50.
      5,         220.,           0.,         100.
      6,         250.,           0.,         100.
      7,         250.,           0.,           0.
      8,         250.,         250.,           0.
      9,           0.,         250.,          50.
     10,           0.,           0.,          50.
     11,           0.,           0.,           0.
     12,           0.,         250.,           0.
     13,         250.,         250.,   91.6666641
     14,         250.,         250.,   83.3333359
     15,         250.,         250.,          75.
     16,         250.,         250.,   66.6666641
     17,         250.,         250.,   58.3333321
     18,   245.714279,         250.,   57.1428566
     19,   241.428574,         250.,   64.2857132
     20,   237.142853,         250.,   71.4285736
** ... 8236 like lines cut
*Element, type=C3D8R
  1,  555,  556, 3378, 3195,   16,   17,  358,  357
  2,  556,   24,  375, 3378,   17,    1,   18,  358
  3, 3195, 3378, 3379, 3196,  357,  358,  360,  359
  4, 3378,  375,  376, 3379,  358,   18,   19,  360
  5, 3196, 3379, 3223, 3174,  359,  360,  362,  361
  6, 3379,  376,  377, 3223,  360,   19,   20,  362
  7,  557,  558, 3380, 3197,  555,  556, 3378, 3195
  8,  558,   25,  378, 3380,  556,   24,  375, 3378
  9, 3197, 3380, 3381, 3198, 3195, 3378, 3379, 3196
 10, 3380,  378,  379, 3381, 3378,  375,  376, 3379
 11, 3198, 3381, 3224, 3173, 3196, 3379, 3223, 3174
 12, 3381,  379,  380, 3224, 3379,  376,  377, 3223
 13,  559,  560, 3382, 3199,  557,  558, 3380, 3197
 14,  560,   26,  381, 3382,  558,   25,  378, 3380
 15, 3199, 3382, 3383, 3200, 3197, 3380, 3381, 3198
 16, 3382,  381,  382, 3383, 3380,  378,  379, 3381
 17, 3200, 3383, 3225, 3172, 3198, 3381, 3224, 3173
 18, 3383,  382,  383, 3225, 3381,  379,  380, 3224
 19,  561,  562, 3384, 3201,  559,  560, 3382, 3199
 20,  562,   27,  384, 3384,  560,   26,  381, 3382
** ... 6676 like lines cut
*Nset, nset=Set-1, generate
    1,  8256,     1
*Elset, elset=Set-1, generate
    1,  6696,     1
** Section: Section-1
*Solid Section, elset=Set-1, material=Material-1
,
*End Instance
**  
*Nset, nset=Set-1, instance=P30-1
    1,    2,    3,    4,    5,    6,    7,    8,    9,   10,   11,   12,   13,   14,   15,   16
   17,   18,   19,   20,   21,   22,   23,   24,   25,   26,   27,   28,   29,   30,   31,   32
   33,   34,   35,   36,   37,   38,   39,   40,   41,   42,   43,   44,   45,   46,   47,   48
   49,   50,   51,   52,   53,   54,   55,   56,   57,   88,   89,   90,   91,   92,   93,   94
   95,   96,   97,   98,   99,  100,  101,  102,  103,  104,  105,  106,  107,  108,  109,  110
  111,  112,  113,  114,  115,  116,  117,  118,  119,  120,  121,  122,  123,  124,  125,  126
  127,  128,  129,  130,  131,  132,  133,  134,  135,  136,  137,  138,  139,  140,  141,  142
  143,  144,  145,  146,  147,  148,  149,  150,  151,  152,  153,  154,  155,  156,  157,  158
  159,  160,  161,  162,  163,  164,  165,  166,  167,  168,  169,  170,  171,  172,  173,  174
  175,  176,  177,  178,  179,  180,  181,  182,  183,  184,  185,  186,  187,  188,  189,  190
  191,  192,  193,  194,  195,  196,  197,  198,  199,  200,  201,  202,  203,  204,  205,  206
  207,  208,  209,  210,  211,  212,  213,  214,  215,  216,  217,  218,  219,  220,  221,  222
  223,  224,  225,  226,  227,  228,  229,  230,  231,  232,  233,  234,  235,  236,  237,  238
  239,  240,  241,  242,  243,  244,  245,  246,  247,  248,  249,  250,  251,  252,  253,  254
  255,  256,  257,  258,  259,  260,  261,  262,  263,  264,  265,  266,  267,  268,  269,  270
  271,  272,  273,  274,  275,  276,  277,  278,  279,  280,  281,  282,  283,  284,  285,  286
  287,  288,  289,  290,  291,  292,  293,  294,  295,  296,  297,  298,  299,  300,  301,  302
  303,  304,  305,  306,  307,  308,  309,  310,  311,  312,  313,  314,  315,  316,  317,  318
  319,  320,  321,  322,  323,  324,  325,  326,  327,  328,  329,  330,  331,  332,  333,  334
  335,  336,  337,  338,  339,  340,  341,  342,  343,  344,  345,  346,  347,  348,  349,  350
** ... 50 like lines cut
*Elset, elset=Set-1, instance=P30-1
    1,    2,    3,    4,    5,    6,    7,    8,   13,   14,   19,   20,   25,   26,   31,   32
   37,   38,   43,   44,   49,   50,   55,   56,   61,   62,   67,   68,   73,   74,   79,   80
   85,   86,   91,   92,   93,   94,   95,   96,   97,   98,  211,  212,  213,  214,  215,  216
  217,  218,  219,  220,  221,  222,  225,  228,  231,  234,  237,  240,  243,  246,  249,  252
  255,  258,  261,  264,  267,  270,  273,  276,  279,  282,  285,  288,  291,  294,  297,  300
  303,  306,  309,  312,  315,  318,  321,  324,  327,  330,  333,  336,  339,  342,  345,  348
  351,  354,  357,  360,  363,  366,  369,  372,  375,  378,  381,  384,  387,  390,  391,  392
  393,  394,  395,  396,  397,  398,  399,  400,  401,  402,  403,  404,  405,  406,  422,  438
  439,  440,  441,  442,  443,  444,  445,  446,  447,  448,  449,  450,  451,  452,  453,  454
  470,  486,  487,  488,  489,  490,  551,  552,  553,  554,  615,  616,  617,  620,  623,  626
  629,  632,  635,  638,  641,  644,  647,  650,  653,  656,  659,  662,  663,  664,  665,  668
  671,  674,  677,  680,  683,  686,  689,  692,  695,  698,  701,  704,  707,  710,  711,  712
  713,  716,  719,  722,  725,  728,  731,  734,  737,  740,  743,  746,  749,  752,  755,  758
  759,  760,  761,  764,  767,  770,  773,  776,  779,  782,  785,  788,  791,  794,  797,  800
  803,  806,  807,  808,  809,  810,  811,  812,  813,  814,  815,  816,  817,  818,  819,  820
  821,  822,  823,  824,  825,  826,  827,  828,  829,  830,  831,  832,  833,  834,  835,  836
  837,  838,  839,  840,  871,  872,  903,  904,  935,  936,  967,  968,  969,  970,  971,  972
  973,  974,  975,  976,  977,  978,  979,  980,  981,  982,  983,  984,  985,  986,  987,  988
  989,  990,  991,  992,  993,  994,  995,  996, 1011, 1026, 1041, 1056, 1071, 1086, 1101, 1116
 1117, 1118, 1119, 1120, 1121, 1122, 1123, 1124, 1125, 1126, 1127, 1128, 1129, 1130, 1131, 1132
** ... 40 like lines cut
*Nset, nset=Set-2, instance=P30-1
    7,    8,   11,   12,  143,  144,  145,  146,  147,  148,  149,  150,  151,  152,  153,  154
  155,  156,  157,  158,  159,  160,  161,  162,  163,  164,  165,  166,  167,  168,  169,  170
  171,  172,  173,  174,  175,  176,  177,  178,  179,  180,  181,  182,  183,  184,  185,  186
  187,  188,  189,  190,  191,  192,  193,  194,  195,  196,  197,  198,  199,  200,  201,  202
  203,  204,  205,  206,  207,  208,  209,  210,  211,  212,  213,  214,  215,  216,  217,  218
  219,  220,  221,  222,  223,  224,  225,  226,  227,  228,  229,  230,  231,  232,  327,  328
  329,  330,  331,  332,  333,  334,  335,  336,  337,  338,  339,  340,  341,  342,  343,  344
  345,  346,  347,  348,  349,  350,  351,  352,  353,  354,  355,  356, 1297, 1298, 1299, 1300
 1301, 1302, 1303, 1304, 1305, 1306, 1307, 1308, 1309, 1310, 1311, 1312, 1313, 1314, 1315, 1316
 1317, 1318, 1319, 1320, 1321, 1322, 1323, 1324, 1325, 1326, 1327, 1328, 1329, 1330, 1331, 1332
 1333, 1334, 1335, 1336, 1337, 1338, 1339, 1340, 1341, 1342, 1343, 1344, 1345, 1346, 1347, 1348
 1349, 1350, 1351, 1352, 1353, 1354, 1355, 1356, 1357, 1358, 1359, 1360, 1361, 1362, 1363, 1364
 1365, 1366, 1367, 1368, 1369, 1370, 1371, 1372, 1373, 1374, 1375, 1376, 1377, 1378, 1379, 1380
 1381, 1382, 1383, 1384, 1385, 1386, 1387, 1388, 1389, 1390, 1391, 1392, 1393, 1394, 1395, 1396
 1397, 1398, 1399, 1400, 1401, 1402, 1403, 1404, 1405, 1406, 1407, 1408, 1409, 1410, 1411, 1412
 1413, 1414, 1415, 1416, 1417, 1418, 1419, 1420, 1421, 1422, 1423, 1424, 1425, 1426, 1427, 1428
 1429, 1430, 1431, 1432, 1433, 1434, 1435, 1436, 1437, 1438, 1439, 1440, 1441, 1442, 1443, 1444
 1445, 1446, 1447, 1448, 1449, 1450, 1451, 1452, 1453, 1454, 1455, 1456, 1457, 1458, 1459, 1460
 1461, 1462, 1463, 1464, 1465, 1466, 1467, 1468, 1469, 1470, 1471, 1472, 1473, 1474, 1475, 1476
 1477, 1478, 1479, 1480, 1481, 1482, 1483, 1484, 1485, 1486, 1487, 1488, 1489, 1490, 1491, 1492
** ... 44 like lines cut
*Elset, elset=Set-2, instance=P30-1
 1120, 1124, 1128, 1132, 1136, 1140, 1144, 1148, 1152, 1156, 1160, 1164, 1168, 1172, 1176, 1180
 1184, 1188, 1192, 1196, 1200, 1204, 1208, 1212, 1216, 1220, 1224, 1228, 1232, 1236, 1240, 1244
 1248, 1252, 1256, 1260, 1264, 1268, 1272, 1276, 1280, 1284, 1288, 1292, 1296, 1300, 1304, 1308
 1312, 1316, 1320, 1324, 1328, 1332, 1336, 1340, 1344, 1348, 1352, 1356, 1360, 1364, 1368, 1372
 1376, 1380, 1384, 1388, 1392, 1396, 1400, 1404, 1408, 1412, 1416, 1417, 1418, 1419, 1420, 1421
 1422, 1423, 1424, 1425, 1426, 1427, 1428, 1429, 1430, 1431, 1432, 1481, 1482, 1483, 1484, 1485
 1486, 1487, 1488, 1489, 1490, 1491, 1492, 1493, 1494, 1495, 1496, 1545, 1546, 1547, 1548, 1549
 1550, 1551, 1552, 1553, 1554, 1555, 1556, 1557, 1558, 1559, 1560, 1609, 1610, 1611, 1612, 1613
 1614, 1615, 1616, 1617, 1618, 1619, 1620, 1621, 1622, 1623, 1624, 1673, 1674, 1675, 1676, 1677
 1678, 1679, 1680, 1681, 1682, 1683, 1684, 1685, 1686, 1687, 1688, 3476, 3480, 3484, 3488, 3492
 3496, 3500, 3504, 3508, 3512, 3516, 3520, 3524, 3528, 3532, 3536, 3540, 3544, 3548, 3552, 3556
 3560, 3564, 3568, 3572, 3576, 3580, 3584, 3588, 3592, 3596, 3600, 3604, 3608, 3612, 3616, 3620
 3624, 3628, 3632, 3636, 3640, 3644, 3648, 3652, 3656, 3660, 3664, 3668, 3672, 3676, 3680, 3684
 3688, 3692, 3696, 3700, 3704, 3708, 3712, 3716, 3720, 3724, 3728, 3732, 3736, 3740, 3744, 3748
 3752, 3756, 3760, 3764, 3768, 3772, 3776, 3780, 3784, 3788, 3792, 3796, 3800, 3804, 3808, 3812
 3816, 3820, 3824, 3828, 3832, 3836, 3840, 3844, 3848, 3852, 3856, 3860, 3864, 3868, 3872, 3876
 3880, 3884, 3888, 3892, 3896, 3900, 3904, 3908, 3912, 3916, 3920, 3924, 3928, 3932, 3936, 3940
 3944, 3948, 3952, 3956, 3960, 3964, 3968, 3972, 3976, 3980, 3984, 3988, 3992, 3996, 4000, 4004
 4008, 4012, 4016, 4020, 4024, 4028, 4032, 4036, 4040, 4044, 4048, 4052, 4056, 4060, 4064, 4068
 4072, 4076, 4080, 4084, 4088, 4092, 4096, 4100, 4104, 4108, 4112, 4116, 4120, 4124, 4128, 4132
** ... 41 like lines cut
*Elset, elset=_Surf-1_S4, internal, instance=P30-1
  94,  98, 102, 106, 110, 114, 118, 122, 126, 130, 134, 138, 142, 146, 150, 154
 158, 162, 166, 170, 174, 178, 182, 186, 190, 194, 198, 202, 206, 210, 490, 494
 498, 502, 506, 510, 514, 518, 522, 526, 530, 534, 538, 542, 546, 550, 554, 558
 562, 566, 570, 574, 578, 582, 586, 590, 594, 598, 602, 606, 610, 614
*Elset, elset=_Surf-1_S3, internal, instance=P30-1
 211, 212, 213, 223, 224, 225, 235, 236, 237, 247, 248, 249, 259, 260, 261, 271
 272, 273, 283, 284, 285, 295, 296, 297, 307, 308, 309, 319, 320, 321, 331, 332
 333, 343, 344, 345, 355, 356, 357, 367, 368, 369, 379, 380, 381
*Elset, elset=_Surf-1_S2, internal, instance=P30-1, generate
 615,  662,    1
*Surface, type=ELEMENT, name=Surf-1
_Surf-1_S4, S4
_Surf-1_S3, S3
_Surf-1_S2, S2
*Elset, elset=_Surf-2_S4, internal, instance=P30-1
  94,  98, 102, 106, 110, 114, 118, 122, 126, 130, 134, 138, 142, 146, 150, 154
 158, 162, 166, 170, 174, 178, 182, 186, 190, 194, 198, 202, 206, 210, 490, 494
 498, 502, 506, 510, 514, 518, 522, 526, 530, 534, 538, 542, 546, 550, 554, 558
 562, 566, 570, 574, 578, 582, 586, 590, 594, 598, 602, 606, 610, 614
*Elset, elset=_Surf-2_S3, internal, instance=P30-1
 211, 212, 213, 223, 224, 225, 235, 236, 237, 247, 248, 249, 259, 260, 261, 271
 272, 273, 283, 284, 285, 295, 296, 297, 307, 308, 309, 319, 320, 321, 331, 332
 333, 343, 344, 345, 355, 356, 357, 367, 368, 369, 379, 380, 381
*Elset, elset=_Surf-2_S2, internal, instance=P30-1, generate
 615,  662,    1
*Surface, type=ELEMENT, name=Surf-2
_Surf-2_S4, S4
_Surf-2_S3, S3
_Surf-2_S2, S2
*End Assembly
*Amplitude, name=Amp-1
            0.1,           514.8,             0.2,          1029.6,             0.3,          1544.4,             0.4,          2059.2
            0.5,           2574.,             0.6,          3088.8,             0.7,          3603.6,             0.8,          4118.4
            0.9,          4633.2,              1.,           5148.
** 
** MATERIALS
** 
*Material, name=Material-1
*Elastic
 31622.8, 0.2
** ----------------------------------------------------------------
** 
** STEP: Step-1
** 
*Step, name=Step-1, nlgeom=NO
*Static
0.1, 1., 1e-05, 1.
** 
** BOUNDARY CONDITIONS
** 
** Name: BC-1 Type: Symmetry/Antisymmetry/Encastre
*Boundary
Set-1, ZASYMM
** Name: BC-2 Type: Symmetry/Antisymmetry/Encastre
*Boundary
Set-2, ENCASTRE
** 
** LOADS
** 
** Name: Load-1   Type: Pressure
*Dsload
Surf-2, P, 0.8
** 
** OUTPUT REQUESTS
** 
*Restart, write, frequency=0
** 
** FIELD OUTPUT: F-Output-2
** 
*Output, field
*Node Output
U, 
*Element Output, directions=YES
E, S
** 
** FIELD OUTPUT: F-Output-1
** 
*Output, field, variable=PRESELECT
** 
** HISTORY OUTPUT: H-Output-1
** 
*Output, history, variable=PRESELECT
*End Step
