*Heading
** Job name: 33deg Model name: Model-1
** Generated by: Abaqus/CAE 2018
*Preprint, echo=NO, model=NO, history=NO, contact=NO
**
** PARTS
**
*Part, name=P33deg(7793)
*End Part
**  
**
** ASSEMBLY
**
*Assembly, name=Assembly
**  
*Instance, name=P33deg(7793)-3, part=P33deg(7793)
*Node
      1,         120.,         240.,           0.
      2,         120.,           0.,           0.
      3,           0.,           0.,           0.
      4,           0.,         240.,           0.
      5,         120.,           0.,          80.
      6,           0.,           0.,   2.06999993
      7,           0.,         240.,   2.06999993
      8,         120.,         240.,          80.
      9,         240.,           0.,           0.
     10,         240.,         240.,           0.
     11,         240.,         240.,          80.
     12,         240.,           0.,          80.
     13,         120.,         235.,           0.
     14,         120.,         230.,           0.
     15,         120.,         225.,           0.
     16,         120.,         220.,           0.
     17,         120.,         215.,           0.
     18,         120.,         210.,           0.
     19,         120.,         205.,           0.
     20,         120.,         200.,           0.
** ... 24970 like lines cut
*Element, type=C3D8R
    1,   316,  3285,  6943,  2885,     1,    13,   535,   156
    2,  3285,  3286,  6944,  6943,    13,    14,   536,   535
    3,  3286,  3287,  6945,  6944,    14,    15,   537,   536
    4,  3287,  3288,  6946,  6945,    15,    16,   538,   537
    5,  3288,  3289,  6947,  6946,    16,    17,   539,   538
    6,  3289,  3290,  6948,  6947,    17,    18,   540,   539
    7,  3290,  3291,  6949,  6948,    18,    19,   541,   540
    8,  3291,  3292,  6950,  6949,    19,    20,   542,   541
    9,  3292,  3293,  6951,  6950,    20,    21,   543,   542
   10,  3293,  3294,  6952,  6951,    21,    22,   544,   543
   11,  3294,  3295,  6953,  6952,    22,    23,   545,   544
   12,  3295,  3296,  6954,  6953,    23,    24,   546,   545
   13,  3296,  3297,  6955,  6954,    24,    25,   547,   546
   14,  3297,  3298,  6956,  6955,    25,    26,   548,   547
   15,  3298,  3299,  6957,  6956,    26,    27,   549,   548
   16,  3299,  3300,  6958,  6957,    27,    28,   550,   549
   17,  3300,  3301,  6959,  6958,    28,    29,   551,   550
   18,  3301,  3302,  6960,  6959,    29,    30,   552,   551
   19,  3302,  3303,  6961,  6960,    30,    31,   553,   552
   20,  3303,  3304,  6962,  6961,    31,    32,   554,   553
** ... 21580 like lines cut
*Nset, nset=Set-1, generate
     1,  24990,      1
*Elset, elset=Set-1, generate
     1,  21600,      1
** Section: Section-1
*Solid Section, elset=Set-1, material=Material-1
,
*End Instance
**  
*Nset, nset=Set-1, instance=P33deg(7793)-3
    1,    2,    3,    4,    5,    6,    7,    8,    9,   10,   11,   12,   60,   61,   62,   63
   64,   65,   66,   67,   68,   69,   70,   71,   72,   73,   74,   75,   76,   77,   78,   79
   80,   81,   82,   83,   84,   85,   86,   87,   88,   89,   90,   91,   92,   93,   94,   95
   96,   97,   98,   99,  100,  101,  102,  103,  104,  105,  106,  107,  108,  109,  110,  111
  112,  113,  114,  115,  116,  117,  118,  119,  120,  121,  122,  123,  124,  125,  126,  127
  128,  129,  130,  131,  132,  133,  134,  135,  136,  137,  138,  139,  140,  141,  142,  143
  144,  145,  146,  147,  148,  149,  150,  151,  152,  153,  154,  155,  156,  204,  205,  206
  207,  208,  209,  210,  211,  212,  213,  214,  215,  216,  217,  218,  219,  220,  221,  222
  223,  224,  225,  226,  227,  228,  229,  230,  231,  232,  233,  234,  235,  236,  237,  238
  239,  240,  241,  242,  243,  244,  245,  246,  247,  248,  249,  250,  251,  252,  253,  254
  255,  256,  257,  258,  259,  260,  261,  262,  263,  264,  265,  266,  267,  268,  269,  270
  271,  272,  273,  274,  275,  276,  277,  278,  279,  280,  281,  282,  283,  284,  285,  286
  287,  288,  289,  290,  291,  292,  293,  294,  295,  296,  297,  298,  299,  300,  301,  302
  303,  304,  305,  306,  307,  308,  309,  310,  311,  312,  313,  314,  315,  316,  317,  318
  319,  320,  321,  322,  323,  324,  325,  326,  327,  328,  329,  330,  331,  332,  333,  334
  335,  336,  337,  338,  339,  340,  341,  342,  343,  344,  345,  346,  347,  348,  349,  350
  351,  352,  353,  354,  355,  356,  357,  358,  359,  360,  361,  362,  363,  364,  365,  366
  367,  368,  369,  370,  371,  372,  373,  374,  375,  376,  377,  378,  379,  380,  381,  382
  383,  384,  385,  386,  387,  388,  389,  390,  391,  392,  393,  394,  395,  396,  397,  398
  399,  400,  401,  402,  403,  404,  405,  406,  407,  408,  409,  410,  411,  412,  413,  414
** ... 103 like lines cut
*Elset, elset=Set-1, instance=P33deg(7793)-3
     1,    48,    49,    96,    97,   144,   145,   192,   193,   240,   241,   288,   289,   336,   337,   384
   385,   432,   433,   480,   481,   528,   529,   576,   577,   624,   625,   672,   673,   720,   721,   768
   769,   816,   817,   864,   865,   912,   913,   960,   961,  1008,  1009,  1056,  1057,  1104,  1105,  1152
  1153,  1200,  1201,  1202,  1203,  1204,  1205,  1206,  1207,  1208,  1209,  1210,  1211,  1212,  1213,  1214
  1215,  1216,  1217,  1218,  1219,  1220,  1221,  1222,  1223,  1224,  1225,  1226,  1227,  1228,  1229,  1230
  1231,  1232,  1233,  1234,  1235,  1236,  1237,  1238,  1239,  1240,  1241,  1242,  1243,  1244,  1245,  1246
  1247,  1248,  1249,  1296,  1297,  1344,  1345,  1392,  1393,  1440,  1441,  1488,  1489,  1536,  1537,  1584
  1585,  1632,  1633,  1680,  1681,  1728,  1729,  1776,  1777,  1824,  1825,  1872,  1873,  1920,  1921,  1968
  1969,  2016,  2017,  2064,  2065,  2112,  2113,  2160,  2161,  2208,  2209,  2256,  2257,  2304,  2305,  2352
  2353,  2400,  2401,  2448,  2449,  2450,  2451,  2452,  2453,  2454,  2455,  2456,  2457,  2458,  2459,  2460
  2461,  2462,  2463,  2464,  2465,  2466,  2467,  2468,  2469,  2470,  2471,  2472,  2473,  2474,  2475,  2476
  2477,  2478,  2479,  2480,  2481,  2482,  2483,  2484,  2485,  2486,  2487,  2488,  2489,  2490,  2491,  2492
  2493,  2494,  2495,  2496,  2497,  2544,  2545,  2592,  2593,  2640,  2641,  2688,  2689,  2736,  2737,  2784
  2785,  2832,  2833,  2880,  2881,  2928,  2929,  2976,  2977,  3024,  3025,  3072,  3073,  3120,  3121,  3168
  3169,  3216,  3217,  3264,  3265,  3312,  3313,  3360,  3361,  3408,  3409,  3456,  3457,  3504,  3505,  3552
  3553,  3600,  3601,  3648,  3649,  3696,  3697,  3698,  3699,  3700,  3701,  3702,  3703,  3704,  3705,  3706
  3707,  3708,  3709,  3710,  3711,  3712,  3713,  3714,  3715,  3716,  3717,  3718,  3719,  3720,  3721,  3722
  3723,  3724,  3725,  3726,  3727,  3728,  3729,  3730,  3731,  3732,  3733,  3734,  3735,  3736,  3737,  3738
  3739,  3740,  3741,  3742,  3743,  3744,  3745,  3792,  3793,  3840,  3841,  3888,  3889,  3936,  3937,  3984
  3985,  4032,  4033,  4080,  4081,  4128,  4129,  4176,  4177,  4224,  4225,  4272,  4273,  4320,  4321,  4368
** ... 88 like lines cut
*Nset, nset=Set-2, instance=P33deg(7793)-3
    1,    2,    3,    4,    9,   10,   13,   14,   15,   16,   17,   18,   19,   20,   21,   22
   23,   24,   25,   26,   27,   28,   29,   30,   31,   32,   33,   34,   35,   36,   37,   38
   39,   40,   41,   42,   43,   44,   45,   46,   47,   48,   49,   50,   51,   52,   53,   54
   55,   56,   57,   58,   59,   60,   61,   62,   63,   64,   65,   66,   67,   68,   69,   70
   71,   72,   73,   74,   75,   76,   77,   78,   79,   80,   81,   82,   83,   84,   85,   86
   87,   88,   89,   90,   91,   92,   93,   94,   95,   96,   97,   98,   99,  100,  101,  102
  103,  104,  105,  106,  107,  108,  109,  110,  111,  112,  113,  114,  115,  116,  117,  118
  119,  120,  121,  122,  123,  124,  125,  126,  127,  128,  129,  130,  131,  132,  133,  134
  135,  136,  137,  138,  139,  140,  141,  142,  143,  144,  145,  146,  147,  148,  149,  150
  151,  152,  153,  154,  155,  156,  333,  334,  335,  336,  337,  338,  339,  340,  341,  342
  343,  344,  345,  346,  347,  348,  349,  350,  351,  352,  353,  354,  355,  356,  357,  358
  359,  360,  361,  362,  363,  364,  365,  366,  367,  368,  369,  370,  371,  372,  373,  374
  375,  376,  377,  378,  379,  466,  467,  468,  469,  470,  471,  472,  473,  474,  475,  476
  477,  478,  479,  480,  481,  482,  483,  484,  485,  486,  487,  488,  512,  513,  514,  515
  516,  517,  518,  519,  520,  521,  522,  523,  524,  525,  526,  527,  528,  529,  530,  531
  532,  533,  534,  535,  536,  537,  538,  539,  540,  541,  542,  543,  544,  545,  546,  547
  548,  549,  550,  551,  552,  553,  554,  555,  556,  557,  558,  559,  560,  561,  562,  563
  564,  565,  566,  567,  568,  569,  570,  571,  572,  573,  574,  575,  576,  577,  578,  579
  580,  581,  582,  583,  584,  585,  586,  587,  588,  589,  590,  591,  592,  593,  594,  595
  596,  597,  598,  599,  600,  601,  602,  603,  604,  605,  606,  607,  608,  609,  610,  611
** ... 137 like lines cut
*Elset, elset=Set-2, instance=P33deg(7793)-3
     1,     2,     3,     4,     5,     6,     7,     8,     9,    10,    11,    12,    13,    14,    15,    16
    17,    18,    19,    20,    21,    22,    23,    24,    25,    26,    27,    28,    29,    30,    31,    32
    33,    34,    35,    36,    37,    38,    39,    40,    41,    42,    43,    44,    45,    46,    47,    48
    49,    50,    51,    52,    53,    54,    55,    56,    57,    58,    59,    60,    61,    62,    63,    64
    65,    66,    67,    68,    69,    70,    71,    72,    73,    74,    75,    76,    77,    78,    79,    80
    81,    82,    83,    84,    85,    86,    87,    88,    89,    90,    91,    92,    93,    94,    95,    96
    97,    98,    99,   100,   101,   102,   103,   104,   105,   106,   107,   108,   109,   110,   111,   112
   113,   114,   115,   116,   117,   118,   119,   120,   121,   122,   123,   124,   125,   126,   127,   128
   129,   130,   131,   132,   133,   134,   135,   136,   137,   138,   139,   140,   141,   142,   143,   144
   145,   146,   147,   148,   149,   150,   151,   152,   153,   154,   155,   156,   157,   158,   159,   160
   161,   162,   163,   164,   165,   166,   167,   168,   169,   170,   171,   172,   173,   174,   175,   176
   177,   178,   179,   180,   181,   182,   183,   184,   185,   186,   187,   188,   189,   190,   191,   192
   193,   194,   195,   196,   197,   198,   199,   200,   201,   202,   203,   204,   205,   206,   207,   208
   209,   210,   211,   212,   213,   214,   215,   216,   217,   218,   219,   220,   221,   222,   223,   224
   225,   226,   227,   228,   229,   230,   231,   232,   233,   234,   235,   236,   237,   238,   239,   240
   241,   242,   243,   244,   245,   246,   247,   248,   249,   250,   251,   252,   253,   254,   255,   256
   257,   258,   259,   260,   261,   262,   263,   264,   265,   266,   267,   268,   269,   270,   271,   272
   273,   274,   275,   276,   277,   278,   279,   280,   281,   282,   283,   284,   285,   286,   287,   288
   289,   290,   291,   292,   293,   294,   295,   296,   297,   298,   299,   300,   301,   302,   303,   304
   305,   306,   307,   308,   309,   310,   311,   312,   313,   314,   315,   316,   317,   318,   319,   320
** ... 130 like lines cut
*Nset, nset=Set-3, instance=P33deg(7793)-3
    3,    4,    6,    7,   85,   86,   87,   88,   89,   90,   91,   92,   93,   94,   95,   96
   97,   98,   99,  100,  101,  102,  103,  104,  105,  106,  107,  108,  109,  110,  111,  112
  113,  114,  115,  116,  117,  118,  119,  120,  121,  122,  123,  124,  125,  126,  127,  128
  129,  130,  131,  229,  230,  231,  232,  233,  234,  235,  236,  237,  238,  239,  240,  241
  242,  243,  244,  245,  246,  247,  248,  249,  250,  251,  252,  253,  254,  255,  256,  257
  258,  259,  260,  261,  262,  263,  264,  265,  266,  267,  268,  269,  270,  271,  272,  273
  274,  275,  301,  302,  303,  304,  305,  306,  307,  308,  317,  318,  319,  320,  321,  322
  323,  324, 3661, 3662, 3663, 3664, 3665, 3666, 3667, 3668, 3669, 3670, 3671, 3672, 3673, 3674
 3675, 3676, 3677, 3678, 3679, 3680, 3681, 3682, 3683, 3684, 3685, 3686, 3687, 3688, 3689, 3690
 3691, 3692, 3693, 3694, 3695, 3696, 3697, 3698, 3699, 3700, 3701, 3702, 3703, 3704, 3705, 3706
 3707, 3708, 3709, 3710, 3711, 3712, 3713, 3714, 3715, 3716, 3717, 3718, 3719, 3720, 3721, 3722
 3723, 3724, 3725, 3726, 3727, 3728, 3729, 3730, 3731, 3732, 3733, 3734, 3735, 3736, 3737, 3738
 3739, 3740, 3741, 3742, 3743, 3744, 3745, 3746, 3747, 3748, 3749, 3750, 3751, 3752, 3753, 3754
 3755, 3756, 3757, 3758, 3759, 3760, 3761, 3762, 3763, 3764, 3765, 3766, 3767, 3768, 3769, 3770
 3771, 3772, 3773, 3774, 3775, 3776, 3777, 3778, 3779, 3780, 3781, 3782, 3783, 3784, 3785, 3786
 3787, 3788, 3789, 3790, 3791, 3792, 3793, 3794, 3795, 3796, 3797, 3798, 3799, 3800, 3801, 3802
 3803, 3804, 3805, 3806, 3807, 3808, 3809, 3810, 3811, 3812, 3813, 3814, 3815, 3816, 3817, 3818
 3819, 3820, 3821, 3822, 3823, 3824, 3825, 3826, 3827, 3828, 3829, 3830, 3831, 3832, 3833, 3834
 3835, 3836, 3837, 3838, 3839, 3840, 3841, 3842, 3843, 3844, 3845, 3846, 3847, 3848, 3849, 3850
 3851, 3852, 3853, 3854, 3855, 3856, 3857, 3858, 3859, 3860, 3861, 3862, 3863, 3864, 3865, 3866
** ... 11 like lines cut
*Elset, elset=Set-3, instance=P33deg(7793)-3
  1201,  1202,  1203,  1204,  1205,  1206,  1207,  1208,  1209,  1210,  1211,  1212,  1213,  1214,  1215,  1216
  1217,  1218,  1219,  1220,  1221,  1222,  1223,  1224,  1225,  1226,  1227,  1228,  1229,  1230,  1231,  1232
  1233,  1234,  1235,  1236,  1237,  1238,  1239,  1240,  1241,  1242,  1243,  1244,  1245,  1246,  1247,  1248
  2449,  2450,  2451,  2452,  2453,  2454,  2455,  2456,  2457,  2458,  2459,  2460,  2461,  2462,  2463,  2464
  2465,  2466,  2467,  2468,  2469,  2470,  2471,  2472,  2473,  2474,  2475,  2476,  2477,  2478,  2479,  2480
  2481,  2482,  2483,  2484,  2485,  2486,  2487,  2488,  2489,  2490,  2491,  2492,  2493,  2494,  2495,  2496
  3697,  3698,  3699,  3700,  3701,  3702,  3703,  3704,  3705,  3706,  3707,  3708,  3709,  3710,  3711,  3712
  3713,  3714,  3715,  3716,  3717,  3718,  3719,  3720,  3721,  3722,  3723,  3724,  3725,  3726,  3727,  3728
  3729,  3730,  3731,  3732,  3733,  3734,  3735,  3736,  3737,  3738,  3739,  3740,  3741,  3742,  3743,  3744
  4945,  4946,  4947,  4948,  4949,  4950,  4951,  4952,  4953,  4954,  4955,  4956,  4957,  4958,  4959,  4960
  4961,  4962,  4963,  4964,  4965,  4966,  4967,  4968,  4969,  4970,  4971,  4972,  4973,  4974,  4975,  4976
  4977,  4978,  4979,  4980,  4981,  4982,  4983,  4984,  4985,  4986,  4987,  4988,  4989,  4990,  4991,  4992
  6193,  6194,  6195,  6196,  6197,  6198,  6199,  6200,  6201,  6202,  6203,  6204,  6205,  6206,  6207,  6208
  6209,  6210,  6211,  6212,  6213,  6214,  6215,  6216,  6217,  6218,  6219,  6220,  6221,  6222,  6223,  6224
  6225,  6226,  6227,  6228,  6229,  6230,  6231,  6232,  6233,  6234,  6235,  6236,  6237,  6238,  6239,  6240
  7441,  7442,  7443,  7444,  7445,  7446,  7447,  7448,  7449,  7450,  7451,  7452,  7453,  7454,  7455,  7456
  7457,  7458,  7459,  7460,  7461,  7462,  7463,  7464,  7465,  7466,  7467,  7468,  7469,  7470,  7471,  7472
  7473,  7474,  7475,  7476,  7477,  7478,  7479,  7480,  7481,  7482,  7483,  7484,  7485,  7486,  7487,  7488
  8689,  8690,  8691,  8692,  8693,  8694,  8695,  8696,  8697,  8698,  8699,  8700,  8701,  8702,  8703,  8704
  8705,  8706,  8707,  8708,  8709,  8710,  8711,  8712,  8713,  8714,  8715,  8716,  8717,  8718,  8719,  8720
** ... 7 like lines cut
*Elset, elset=_Surf-2_S5, internal, instance=P33deg(7793)-3
 11617, 11618, 11619, 11620, 11621, 11622, 11623, 11624, 11625, 11626, 11627, 11628, 11629, 11630, 11631, 11632
 11633, 11634, 11635, 11636, 11637, 11638, 11639, 11640, 11641, 11642, 11643, 11644, 11645, 11646, 11647, 11648
 11649, 11650, 11651, 11652, 11653, 11654, 11655, 11656, 11657, 11658, 11659, 11660, 11661, 11662, 11663, 11664
 12049, 12050, 12051, 12052, 12053, 12054, 12055, 12056, 12057, 12058, 12059, 12060, 12061, 12062, 12063, 12064
 12065, 12066, 12067, 12068, 12069, 12070, 12071, 12072, 12073, 12074, 12075, 12076, 12077, 12078, 12079, 12080
 12081, 12082, 12083, 12084, 12085, 12086, 12087, 12088, 12089, 12090, 12091, 12092, 12093, 12094, 12095, 12096
 12481, 12482, 12483, 12484, 12485, 12486, 12487, 12488, 12489, 12490, 12491, 12492, 12493, 12494, 12495, 12496
 12497, 12498, 12499, 12500, 12501, 12502, 12503, 12504, 12505, 12506, 12507, 12508, 12509, 12510, 12511, 12512
 12513, 12514, 12515, 12516, 12517, 12518, 12519, 12520, 12521, 12522, 12523, 12524, 12525, 12526, 12527, 12528
 12913, 12914, 12915, 12916, 12917, 12918, 12919, 12920, 12921, 12922, 12923, 12924, 12925, 12926, 12927, 12928
 12929, 12930, 12931, 12932, 12933, 12934, 12935, 12936, 12937, 12938, 12939, 12940, 12941, 12942, 12943, 12944
 12945, 12946, 12947, 12948, 12949, 12950, 12951, 12952, 12953, 12954, 12955, 12956, 12957, 12958, 12959, 12960
 13345, 13346, 13347, 13348, 13349, 13350, 13351, 13352, 13353, 13354, 13355, 13356, 13357, 13358, 13359, 13360
 13361, 13362, 13363, 13364, 13365, 13366, 13367, 13368, 13369, 13370, 13371, 13372, 13373, 13374, 13375, 13376
 13377, 13378, 13379, 13380, 13381, 13382, 13383, 13384, 13385, 13386, 13387, 13388, 13389, 13390, 13391, 13392
 13777, 13778, 13779, 13780, 13781, 13782, 13783, 13784, 13785, 13786, 13787, 13788, 13789, 13790, 13791, 13792
 13793, 13794, 13795, 13796, 13797, 13798, 13799, 13800, 13801, 13802, 13803, 13804, 13805, 13806, 13807, 13808
 13809, 13810, 13811, 13812, 13813, 13814, 13815, 13816, 13817, 13818, 13819, 13820, 13821, 13822, 13823, 13824
 14209, 14210, 14211, 14212, 14213, 14214, 14215, 14216, 14217, 14218, 14219, 14220, 14221, 14222, 14223, 14224
 14225, 14226, 14227, 14228, 14229, 14230, 14231, 14232, 14233, 14234, 14235, 14236, 14237, 14238, 14239, 14240
** ... 52 like lines cut
*Surface, type=ELEMENT, name=Surf-2
_Surf-2_S5, S5
*End Assembly
** 
** MATERIALS
** 
*Material, name=Material-1
*Elastic
 31622.8, 0.2
** ----------------------------------------------------------------
** 
** STEP: Step-1
** 
*Step, name=Step-1, nlgeom=NO
*Static
0.01, 1., 1e-05, 1.
** 
** BOUNDARY CONDITIONS
** 
** Name: BC-1 Type: Symmetry/Antisymmetry/Encastre
*Boundary
Set-1, ZASYMM
** Name: BC-2 Type: Symmetry/Antisymmetry/Encastre
*Boundary
Set-2, ENCASTRE
** Name: BC-3 Type: Symmetry/Antisymmetry/Encastre
*Boundary
Set-3, ENCASTRE
** 
** LOADS
** 
** Name: Load-1   Type: Pressure
*Dsload
Surf-2, P, 5.
** 
** OUTPUT REQUESTS
** 
*Restart, write, frequency=0
** 
** FIELD OUTPUT: F-Output-2
** 
*Output, field
*Node Output
U, 
*Element Output, directions=YES
E, S
** 
** FIELD OUTPUT: F-Output-1
** 
*Output, field, variable=PRESELECT
** 
** HISTORY OUTPUT: H-Output-1
** 
*Output, history, variable=PRESELECT
*End Step
