*Heading
** Job name: 40S Model name: 40
** Generated by: Abaqus/CAE 2018
*Preprint, echo=NO, model=NO, history=NO, contact=NO
**
** PARTS
**
*Part, name=P40
*End Part
**  
**
** ASSEMBLY
**
*Assembly, name=Assembly
**  
*Instance, name=P40-1, part=P40
*Node
      1,         250.,         250.,          50.
      2,         210.,         250.,         100.
      3,         250.,         250.,         100.
      4,         250.,           0.,          50.
      5,         210.,           0.,         100.
      6,         250.,           0.,         100.
      7,         250.,           0.,           0.
      8,         250.,         250.,           0.
      9,           0.,         250.,          50.
     10,           0.,           0.,          50.
     11,           0.,           0.,           0.
     12,           0.,         250.,           0.
     13,         250.,         250.,   91.6666641
     14,         250.,         250.,   83.3333359
     15,         250.,         250.,          75.
     16,         250.,         250.,   66.6666641
     17,         250.,         250.,   58.3333321
     18,         245.,         250.,        56.25
     19,         240.,         250.,         62.5
     20,         235.,         250.,        68.75
** ... 8428 like lines cut
*Element, type=C3D8R
  1,  592,  593, 3454, 3239,   16,   17,  360,  359
  2,  593,   25,  382, 3454,   17,    1,   18,  360
  3, 3239, 3454, 3455, 3240,  359,  360,  362,  361
  4, 3454,  382,  383, 3455,  360,   18,   19,  362
  5, 3240, 3455, 3456, 3241,  361,  362,  364,  363
  6, 3455,  383,  384, 3456,  362,   19,   20,  364
  7, 3241, 3456, 3281, 3217,  363,  364,  366,  365
  8, 3456,  384,  385, 3281,  364,   20,   21,  366
  9,  594,  595, 3457, 3242,  592,  593, 3454, 3239
 10,  595,   26,  386, 3457,  593,   25,  382, 3454
 11, 3242, 3457, 3458, 3243, 3239, 3454, 3455, 3240
 12, 3457,  386,  387, 3458, 3454,  382,  383, 3455
 13, 3243, 3458, 3459, 3244, 3240, 3455, 3456, 3241
 14, 3458,  387,  388, 3459, 3455,  383,  384, 3456
 15, 3244, 3459, 3282, 3216, 3241, 3456, 3281, 3217
 16, 3459,  388,  389, 3282, 3456,  384,  385, 3281
 17,  596,  597, 3460, 3245,  594,  595, 3457, 3242
 18,  597,   27,  390, 3460,  595,   26,  386, 3457
 19, 3245, 3460, 3461, 3246, 3242, 3457, 3458, 3243
 20, 3460,  390,  391, 3461, 3457,  386,  387, 3458
** ... 6862 like lines cut
*Nset, nset=Set-1, generate
    1,  8448,     1
*Elset, elset=Set-1, generate
    1,  6882,     1
** Section: Section-1
*Solid Section, elset=Set-1, material=Material-1
,
*End Instance
**  
*Nset, nset=Set-1, instance=P40-1
    1,    2,    3,    4,    5,    6,    7,    8,    9,   10,   11,   12,   13,   14,   15,   16
   17,   18,   19,   20,   21,   22,   23,   24,   25,   26,   27,   28,   29,   30,   31,   32
   33,   34,   35,   36,   37,   38,   39,   40,   41,   42,   43,   44,   45,   46,   47,   48
   49,   50,   51,   52,   53,   54,   55,   56,   57,   58,   59,   90,   91,   92,   93,   94
   95,   96,   97,   98,   99,  100,  101,  102,  103,  104,  105,  106,  107,  108,  109,  110
  111,  112,  113,  114,  115,  116,  117,  118,  119,  120,  121,  122,  123,  124,  125,  126
  127,  128,  129,  130,  131,  132,  133,  134,  135,  136,  137,  138,  139,  140,  141,  142
  143,  144,  145,  146,  147,  148,  149,  150,  151,  152,  153,  154,  155,  156,  157,  158
  159,  160,  161,  162,  163,  164,  165,  166,  167,  168,  169,  170,  171,  172,  173,  174
  175,  176,  177,  178,  179,  180,  181,  182,  183,  184,  185,  186,  187,  188,  189,  190
  191,  192,  193,  194,  195,  196,  197,  198,  199,  200,  201,  202,  203,  204,  205,  206
  207,  208,  209,  210,  211,  212,  213,  214,  215,  216,  217,  218,  219,  220,  221,  222
  223,  224,  225,  226,  227,  228,  229,  230,  231,  232,  233,  234,  235,  236,  237,  238
  239,  240,  241,  242,  243,  244,  245,  246,  247,  248,  249,  250,  251,  252,  253,  254
  255,  256,  257,  258,  259,  260,  261,  262,  263,  264,  265,  266,  267,  268,  269,  270
  271,  272,  273,  274,  275,  276,  277,  278,  279,  280,  281,  282,  283,  284,  285,  286
  287,  288,  289,  290,  291,  292,  293,  294,  295,  296,  297,  298,  299,  300,  301,  302
  303,  304,  305,  306,  307,  308,  309,  310,  311,  312,  313,  314,  315,  316,  317,  318
  319,  320,  321,  322,  323,  324,  325,  326,  327,  328,  329,  330,  331,  332,  333,  334
  335,  336,  337,  338,  339,  340,  341,  342,  343,  344,  345,  346,  347,  348,  349,  350
** ... 51 like lines cut
*Elset, elset=Set-1, instance=P40-1
    1,    2,    3,    4,    5,    6,    7,    8,    9,   10,   17,   18,   25,   26,   33,   34
   41,   42,   49,   50,   57,   58,   65,   66,   73,   74,   81,   82,   89,   90,   97,   98
  105,  106,  113,  114,  121,  122,  123,  124,  125,  126,  127,  128,  241,  242,  243,  244
  245,  246,  247,  248,  249,  250,  251,  252,  253,  254,  255,  256,  260,  264,  268,  272
  276,  280,  284,  288,  292,  296,  300,  304,  308,  312,  316,  320,  324,  328,  332,  336
  340,  344,  348,  352,  356,  360,  364,  368,  372,  376,  380,  384,  388,  392,  396,  400
  404,  408,  412,  416,  420,  424,  428,  432,  436,  440,  444,  448,  452,  456,  460,  464
  468,  472,  476,  480,  481,  482,  483,  484,  485,  486,  487,  488,  489,  490,  491,  492
  493,  494,  495,  496,  512,  528,  544,  545,  546,  547,  548,  549,  550,  551,  552,  553
  554,  555,  556,  557,  558,  559,  560,  576,  592,  608,  609,  610,  611,  612,  673,  674
  675,  676,  737,  738,  739,  740,  744,  748,  752,  756,  760,  764,  768,  772,  776,  780
  784,  788,  792,  796,  800,  801,  802,  803,  804,  808,  812,  816,  820,  824,  828,  832
  836,  840,  844,  848,  852,  856,  860,  864,  865,  866,  867,  868,  872,  876,  880,  884
  888,  892,  896,  900,  904,  908,  912,  916,  920,  924,  928,  929,  930,  931,  932,  936
  940,  944,  948,  952,  956,  960,  964,  968,  972,  976,  980,  984,  988,  992,  993,  994
  995,  996,  997,  998,  999, 1000, 1001, 1002, 1003, 1004, 1005, 1006, 1007, 1008, 1009, 1010
 1011, 1012, 1013, 1014, 1015, 1016, 1017, 1018, 1019, 1020, 1021, 1022, 1023, 1024, 1025, 1026
 1057, 1058, 1089, 1090, 1121, 1122, 1153, 1154, 1185, 1186, 1187, 1188, 1189, 1190, 1191, 1192
 1193, 1194, 1195, 1196, 1197, 1198, 1199, 1200, 1201, 1202, 1203, 1204, 1205, 1206, 1207, 1208
 1209, 1210, 1211, 1212, 1213, 1214, 1229, 1244, 1259, 1274, 1289, 1304, 1319, 1334, 1349, 1364
** ... 41 like lines cut
*Nset, nset=Set-2, instance=P40-1
    7,    8,   11,   12,  147,  148,  149,  150,  151,  152,  153,  154,  155,  156,  157,  158
  159,  160,  161,  162,  163,  164,  165,  166,  167,  168,  169,  170,  171,  172,  173,  174
  175,  176,  177,  178,  179,  180,  181,  182,  183,  184,  185,  186,  187,  188,  189,  190
  191,  192,  193,  194,  195,  196,  197,  198,  199,  200,  201,  202,  203,  204,  205,  206
  207,  208,  209,  210,  211,  212,  213,  214,  215,  216,  217,  218,  219,  220,  221,  222
  223,  224,  225,  226,  227,  228,  229,  230,  231,  232,  233,  234,  235,  236,  329,  330
  331,  332,  333,  334,  335,  336,  337,  338,  339,  340,  341,  342,  343,  344,  345,  346
  347,  348,  349,  350,  351,  352,  353,  354,  355,  356,  357,  358, 1369, 1370, 1371, 1372
 1373, 1374, 1375, 1376, 1377, 1378, 1379, 1380, 1381, 1382, 1383, 1384, 1385, 1386, 1387, 1388
 1389, 1390, 1391, 1392, 1393, 1394, 1395, 1396, 1397, 1398, 1399, 1400, 1401, 1402, 1403, 1404
 1405, 1406, 1407, 1408, 1409, 1410, 1411, 1412, 1413, 1414, 1415, 1416, 1417, 1418, 1419, 1420
 1421, 1422, 1423, 1424, 1425, 1426, 1427, 1428, 1429, 1430, 1431, 1432, 1433, 1434, 1435, 1436
 1437, 1438, 1439, 1440, 1441, 1442, 1443, 1444, 1445, 1446, 1447, 1448, 1449, 1450, 1451, 1452
 1453, 1454, 1455, 1456, 1457, 1458, 1459, 1460, 1461, 1462, 1463, 1464, 1465, 1466, 1467, 1468
 1469, 1470, 1471, 1472, 1473, 1474, 1475, 1476, 1477, 1478, 1479, 1480, 1481, 1482, 1483, 1484
 1485, 1486, 1487, 1488, 1489, 1490, 1491, 1492, 1493, 1494, 1495, 1496, 1497, 1498, 1499, 1500
 1501, 1502, 1503, 1504, 1505, 1506, 1507, 1508, 1509, 1510, 1511, 1512, 1513, 1514, 1515, 1516
 1517, 1518, 1519, 1520, 1521, 1522, 1523, 1524, 1525, 1526, 1527, 1528, 1529, 1530, 1531, 1532
 1533, 1534, 1535, 1536, 1537, 1538, 1539, 1540, 1541, 1542, 1543, 1544, 1545, 1546, 1547, 1548
 1549, 1550, 1551, 1552, 1553, 1554, 1555, 1556, 1557, 1558, 1559, 1560, 1561, 1562, 1563, 1564
** ... 44 like lines cut
*Elset, elset=Set-2, instance=P40-1
 1368, 1372, 1376, 1380, 1384, 1388, 1392, 1396, 1400, 1404, 1408, 1412, 1416, 1420, 1424, 1428
 1432, 1436, 1440, 1444, 1448, 1452, 1456, 1460, 1464, 1468, 1472, 1476, 1480, 1484, 1488, 1492
 1496, 1500, 1504, 1508, 1512, 1516, 1520, 1524, 1528, 1532, 1536, 1540, 1544, 1548, 1552, 1556
 1560, 1564, 1568, 1572, 1576, 1580, 1584, 1588, 1592, 1596, 1600, 1604, 1608, 1612, 1616, 1620
 1624, 1628, 1632, 1636, 1640, 1644, 1648, 1652, 1656, 1660, 1664, 1668, 1672, 1676, 1680, 1684
 1688, 1692, 1696, 1700, 1704, 1708, 1712, 1716, 1720, 1724, 1725, 1726, 1727, 1728, 1729, 1730
 1731, 1732, 1733, 1734, 1735, 1736, 1737, 1738, 1739, 1740, 1789, 1790, 1791, 1792, 1793, 1794
 1795, 1796, 1797, 1798, 1799, 1800, 1801, 1802, 1803, 1804, 1853, 1854, 1855, 1856, 1857, 1858
 1859, 1860, 1861, 1862, 1863, 1864, 1865, 1866, 1867, 1868, 1917, 1918, 1919, 1920, 1921, 1922
 1923, 1924, 1925, 1926, 1927, 1928, 1929, 1930, 1931, 1932, 1981, 1982, 1983, 1984, 1985, 1986
 1987, 1988, 1989, 1990, 1991, 1992, 1993, 1994, 1995, 1996, 2045, 2046, 2047, 2048, 2049, 2050
 2051, 2052, 2053, 2054, 2055, 2056, 2057, 2058, 2059, 2060, 3786, 3790, 3794, 3798, 3802, 3806
 3810, 3814, 3818, 3822, 3826, 3830, 3834, 3838, 3842, 3846, 3850, 3854, 3858, 3862, 3866, 3870
 3874, 3878, 3882, 3886, 3890, 3894, 3898, 3902, 3906, 3910, 3914, 3918, 3922, 3926, 3930, 3934
 3938, 3942, 3946, 3950, 3954, 3958, 3962, 3966, 3970, 3974, 3978, 3982, 3986, 3990, 3994, 3998
 4002, 4006, 4010, 4014, 4018, 4022, 4026, 4030, 4034, 4038, 4042, 4046, 4050, 4054, 4058, 4062
 4066, 4070, 4074, 4078, 4082, 4086, 4090, 4094, 4098, 4102, 4106, 4110, 4114, 4118, 4122, 4126
 4130, 4134, 4138, 4142, 4146, 4150, 4154, 4158, 4162, 4166, 4170, 4174, 4178, 4182, 4186, 4190
 4194, 4198, 4202, 4206, 4210, 4214, 4218, 4222, 4226, 4230, 4234, 4238, 4242, 4246, 4250, 4254
 4258, 4262, 4266, 4270, 4274, 4278, 4282, 4286, 4290, 4294, 4298, 4302, 4306, 4310, 4314, 4318
** ... 41 like lines cut
*Elset, elset=_Surf-1_S4, internal, instance=P40-1
 124, 128, 132, 136, 140, 144, 148, 152, 156, 160, 164, 168, 172, 176, 180, 184
 188, 192, 196, 200, 204, 208, 212, 216, 220, 224, 228, 232, 236, 240, 612, 616
 620, 624, 628, 632, 636, 640, 644, 648, 652, 656, 660, 664, 668, 672, 676, 680
 684, 688, 692, 696, 700, 704, 708, 712, 716, 720, 724, 728, 732, 736
*Elset, elset=_Surf-1_S3, internal, instance=P40-1
 241, 242, 243, 244, 257, 258, 259, 260, 273, 274, 275, 276, 289, 290, 291, 292
 305, 306, 307, 308, 321, 322, 323, 324, 337, 338, 339, 340, 353, 354, 355, 356
 369, 370, 371, 372, 385, 386, 387, 388, 401, 402, 403, 404, 417, 418, 419, 420
 433, 434, 435, 436, 449, 450, 451, 452, 465, 466, 467, 468
*Elset, elset=_Surf-1_S2, internal, instance=P40-1, generate
 737,  800,    1
*Surface, type=ELEMENT, name=Surf-1
_Surf-1_S4, S4
_Surf-1_S3, S3
_Surf-1_S2, S2
*Elset, elset=_Surf-2_S4, internal, instance=P40-1
 124, 128, 132, 136, 140, 144, 148, 152, 156, 160, 164, 168, 172, 176, 180, 184
 188, 192, 196, 200, 204, 208, 212, 216, 220, 224, 228, 232, 236, 240, 612, 616
 620, 624, 628, 632, 636, 640, 644, 648, 652, 656, 660, 664, 668, 672, 676, 680
 684, 688, 692, 696, 700, 704, 708, 712, 716, 720, 724, 728, 732, 736
*Elset, elset=_Surf-2_S3, internal, instance=P40-1
 241, 242, 243, 244, 257, 258, 259, 260, 273, 274, 275, 276, 289, 290, 291, 292
 305, 306, 307, 308, 321, 322, 323, 324, 337, 338, 339, 340, 353, 354, 355, 356
 369, 370, 371, 372, 385, 386, 387, 388, 401, 402, 403, 404, 417, 418, 419, 420
 433, 434, 435, 436, 449, 450, 451, 452, 465, 466, 467, 468
*Elset, elset=_Surf-2_S2, internal, instance=P40-1, generate
 737,  800,    1
*Surface, type=ELEMENT, name=Surf-2
_Surf-2_S4, S4
_Surf-2_S3, S3
_Surf-2_S2, S2
*Elset, elset=_Surf-3_S4, internal, instance=P40-1
 124, 128, 132, 136, 140, 144, 148, 152, 156, 160, 164, 168, 172, 176, 180, 184
 188, 192, 196, 200, 204, 208, 212, 216, 220, 224, 228, 232, 236, 240, 612, 616
 620, 624, 628, 632, 636, 640, 644, 648, 652, 656, 660, 664, 668, 672, 676, 680
 684, 688, 692, 696, 700, 704, 708, 712, 716, 720, 724, 728, 732, 736
*Elset, elset=_Surf-3_S3, internal, instance=P40-1
 241, 242, 243, 244, 257, 258, 259, 260, 273, 274, 275, 276, 289, 290, 291, 292
 305, 306, 307, 308, 321, 322, 323, 324, 337, 338, 339, 340, 353, 354, 355, 356
 369, 370, 371, 372, 385, 386, 387, 388, 401, 402, 403, 404, 417, 418, 419, 420
 433, 434, 435, 436, 449, 450, 451, 452, 465, 466, 467, 468
*Elset, elset=_Surf-3_S2, internal, instance=P40-1, generate
 737,  800,    1
*Surface, type=ELEMENT, name=Surf-3
_Surf-3_S4, S4
_Surf-3_S3, S3
_Surf-3_S2, S2
*End Assembly
*Amplitude, name=Amp-1
            0.1,           514.8,             0.2,          1029.6,             0.3,          1544.4,             0.4,          2059.2
            0.5,           2574.,             0.6,          3088.8,             0.7,          3603.6,             0.8,          4118.4
            0.9,          4633.2,              1.,           5148.
** 
** MATERIALS
** 
*Material, name=Material-1
*Elastic
 31622.8, 0.2
** ----------------------------------------------------------------
** 
** STEP: Step-1
** 
*Step, name=Step-1, nlgeom=YES
*Static
0.1, 1., 1e-05, 1.
** 
** BOUNDARY CONDITIONS
** 
** Name: BC-1 Type: Symmetry/Antisymmetry/Encastre
*Boundary
Set-1, ZASYMM
** Name: BC-2 Type: Symmetry/Antisymmetry/Encastre
*Boundary
Set-2, ENCASTRE
** 
** LOADS
** 
** Name: Load-1   Type: Pressure
*Dsload
Surf-3, P, 0.8
** 
** OUTPUT REQUESTS
** 
*Restart, write, frequency=0
** 
** FIELD OUTPUT: F-Output-2
** 
*Output, field
*Node Output
U, 
*Element Output, directions=YES
E, S
** 
** FIELD OUTPUT: F-Output-1
** 
*Output, field, variable=PRESELECT
** 
** HISTORY OUTPUT: H-Output-1
** 
*Output, history, variable=PRESELECT
*End Step
