*Heading
** Job name: 50S Model name: 50
** Generated by: Abaqus/CAE 2018
*Preprint, echo=NO, model=NO, history=NO, contact=NO
**
** PARTS
**
*Part, name=P50
*End Part
**  
**
** ASSEMBLY
**
*Assembly, name=Assembly
**  
*Instance, name=P50-1, part=P50
*Node
      1,         250.,         250.,          50.
      2,         200.,         250.,         100.
      3,         250.,         250.,         100.
      4,         200.,           0.,         100.
      5,         250.,           0.,          50.
      6,         250.,           0.,         100.
      7,         250.,           0.,           0.
      8,         250.,         250.,           0.
      9,           0.,         250.,          50.
     10,           0.,           0.,          50.
     11,           0.,           0.,           0.
     12,           0.,         250.,           0.
     13,         250.,         250.,   91.6666641
     14,         250.,         250.,   83.3333359
     15,         250.,         250.,          75.
     16,         250.,         250.,   66.6666641
     17,         250.,         250.,   58.3333321
     18,   244.444443,         250.,   55.5555573
     19,   238.888885,         250.,   61.1111107
     20,   233.333328,         250.,   66.6666641
** ... 8620 like lines cut
*Element, type=C3D8R
   1,  629,  630, 3530, 3283,   16,   17,  362,  361
   2,  630,   55,  389, 3530,   17,    1,   18,  362
   3, 3283, 3530, 3531, 3284,  361,  362,  364,  363
   4, 3530,  389,  390, 3531,  362,   18,   19,  364
   5, 3284, 3531, 3532, 3285,  363,  364,  366,  365
   6, 3531,  390,  391, 3532,  364,   19,   20,  366
   7, 3285, 3532, 3533, 3286,  365,  366,  368,  367
   8, 3532,  391,  392, 3533,  366,   20,   21,  368
   9, 3286, 3533, 3339, 3260,  367,  368,  370,  369
  10, 3533,  392,  393, 3339,  368,   21,   22,  370
  11,  631,  632, 3534, 3287,  629,  630, 3530, 3283
  12,  632,   54,  394, 3534,  630,   55,  389, 3530
  13, 3287, 3534, 3535, 3288, 3283, 3530, 3531, 3284
  14, 3534,  394,  395, 3535, 3530,  389,  390, 3531
  15, 3288, 3535, 3536, 3289, 3284, 3531, 3532, 3285
  16, 3535,  395,  396, 3536, 3531,  390,  391, 3532
  17, 3289, 3536, 3537, 3290, 3285, 3532, 3533, 3286
  18, 3536,  396,  397, 3537, 3532,  391,  392, 3533
  19, 3290, 3537, 3340, 3259, 3286, 3533, 3339, 3260
  20, 3537,  397,  398, 3340, 3533,  392,  393, 3339
** ... 7048 like lines cut
*Nset, nset=Set-1, generate
    1,  8640,     1
*Elset, elset=Set-1, generate
    1,  7068,     1
** Section: Section-1
*Solid Section, elset=Set-1, material=Material-1
,
*End Instance
**  
*Nset, nset=Set-1, instance=P50-1, generate
    1,  8640,     1
*Elset, elset=Set-1, instance=P50-1, generate
    1,  7068,     1
*Nset, nset=Set-2, instance=P50-1
    7,    8,   11,   12,  151,  152,  153,  154,  155,  156,  157,  158,  159,  160,  161,  162
  163,  164,  165,  166,  167,  168,  169,  170,  171,  172,  173,  174,  175,  176,  177,  178
  179,  180,  181,  182,  183,  184,  185,  186,  187,  188,  189,  190,  191,  192,  193,  194
  195,  196,  197,  198,  199,  200,  201,  202,  203,  204,  205,  206,  207,  208,  209,  210
  211,  212,  213,  214,  215,  216,  217,  218,  219,  220,  221,  222,  223,  224,  225,  226
  227,  228,  229,  230,  231,  232,  233,  234,  235,  236,  237,  238,  239,  240,  331,  332
  333,  334,  335,  336,  337,  338,  339,  340,  341,  342,  343,  344,  345,  346,  347,  348
  349,  350,  351,  352,  353,  354,  355,  356,  357,  358,  359,  360, 1441, 1442, 1443, 1444
 1445, 1446, 1447, 1448, 1449, 1450, 1451, 1452, 1453, 1454, 1455, 1456, 1457, 1458, 1459, 1460
 1461, 1462, 1463, 1464, 1465, 1466, 1467, 1468, 1469, 1470, 1471, 1472, 1473, 1474, 1475, 1476
 1477, 1478, 1479, 1480, 1481, 1482, 1483, 1484, 1485, 1486, 1487, 1488, 1489, 1490, 1491, 1492
 1493, 1494, 1495, 1496, 1497, 1498, 1499, 1500, 1501, 1502, 1503, 1504, 1505, 1506, 1507, 1508
 1509, 1510, 1511, 1512, 1513, 1514, 1515, 1516, 1517, 1518, 1519, 1520, 1521, 1522, 1523, 1524
 1525, 1526, 1527, 1528, 1529, 1530, 1531, 1532, 1533, 1534, 1535, 1536, 1537, 1538, 1539, 1540
 1541, 1542, 1543, 1544, 1545, 1546, 1547, 1548, 1549, 1550, 1551, 1552, 1553, 1554, 1555, 1556
 1557, 1558, 1559, 1560, 1561, 1562, 1563, 1564, 1565, 1566, 1567, 1568, 1569, 1570, 1571, 1572
 1573, 1574, 1575, 1576, 1577, 1578, 1579, 1580, 1581, 1582, 1583, 1584, 1585, 1586, 1587, 1588
 1589, 1590, 1591, 1592, 1593, 1594, 1595, 1596, 1597, 1598, 1599, 1600, 1601, 1602, 1603, 1604
 1605, 1606, 1607, 1608, 1609, 1610, 1611, 1612, 1613, 1614, 1615, 1616, 1617, 1618, 1619, 1620
 1621, 1622, 1623, 1624, 1625, 1626, 1627, 1628, 1629, 1630, 1631, 1632, 1633, 1634, 1635, 1636
** ... 44 like lines cut
*Elset, elset=Set-2, instance=P50-1
 1616, 1620, 1624, 1628, 1632, 1636, 1640, 1644, 1648, 1652, 1656, 1660, 1664, 1668, 1672, 1676
 1680, 1684, 1688, 1692, 1696, 1700, 1704, 1708, 1712, 1716, 1720, 1724, 1728, 1732, 1736, 1740
 1744, 1748, 1752, 1756, 1760, 1764, 1768, 1772, 1776, 1780, 1784, 1788, 1792, 1796, 1800, 1804
 1808, 1812, 1816, 1820, 1824, 1828, 1832, 1836, 1840, 1844, 1848, 1852, 1856, 1860, 1864, 1868
 1872, 1876, 1880, 1884, 1888, 1892, 1896, 1900, 1904, 1908, 1912, 1916, 1920, 1924, 1928, 1932
 1936, 1940, 1944, 1948, 1952, 1956, 1960, 1964, 1968, 1972, 1976, 1980, 1984, 1988, 1992, 1996
 2000, 2004, 2008, 2012, 2016, 2020, 2024, 2028, 2032, 2033, 2034, 2035, 2036, 2037, 2038, 2039
 2040, 2041, 2042, 2043, 2044, 2045, 2046, 2047, 2048, 2097, 2098, 2099, 2100, 2101, 2102, 2103
 2104, 2105, 2106, 2107, 2108, 2109, 2110, 2111, 2112, 2161, 2162, 2163, 2164, 2165, 2166, 2167
 2168, 2169, 2170, 2171, 2172, 2173, 2174, 2175, 2176, 2225, 2226, 2227, 2228, 2229, 2230, 2231
 2232, 2233, 2234, 2235, 2236, 2237, 2238, 2239, 2240, 2289, 2290, 2291, 2292, 2293, 2294, 2295
 2296, 2297, 2298, 2299, 2300, 2301, 2302, 2303, 2304, 2353, 2354, 2355, 2356, 2357, 2358, 2359
 2360, 2361, 2362, 2363, 2364, 2365, 2366, 2367, 2368, 2417, 2418, 2419, 2420, 2421, 2422, 2423
 2424, 2425, 2426, 2427, 2428, 2429, 2430, 2431, 2432, 4096, 4100, 4104, 4108, 4112, 4116, 4120
 4124, 4128, 4132, 4136, 4140, 4144, 4148, 4152, 4156, 4160, 4164, 4168, 4172, 4176, 4180, 4184
 4188, 4192, 4196, 4200, 4204, 4208, 4212, 4216, 4220, 4224, 4228, 4232, 4236, 4240, 4244, 4248
 4252, 4256, 4260, 4264, 4268, 4272, 4276, 4280, 4284, 4288, 4292, 4296, 4300, 4304, 4308, 4312
 4316, 4320, 4324, 4328, 4332, 4336, 4340, 4344, 4348, 4352, 4356, 4360, 4364, 4368, 4372, 4376
 4380, 4384, 4388, 4392, 4396, 4400, 4404, 4408, 4412, 4416, 4420, 4424, 4428, 4432, 4436, 4440
 4444, 4448, 4452, 4456, 4460, 4464, 4468, 4472, 4476, 4480, 4484, 4488, 4492, 4496, 4500, 4504
** ... 41 like lines cut
*Elset, elset=_Surf-1_S4, internal, instance=P50-1
 154, 158, 162, 166, 170, 174, 178, 182, 186, 190, 194, 198, 202, 206, 210, 214
 218, 222, 226, 230, 234, 238, 242, 246, 250, 254, 258, 262, 266, 270, 574, 578
 582, 586, 590, 594, 598, 602, 606, 610, 614, 618, 622, 626, 630, 634, 638, 642
 646, 650, 654, 658, 662, 666, 670, 674, 678, 682, 686, 690, 694, 698
*Elset, elset=_Surf-1_S3, internal, instance=P50-1
 271, 272, 273, 274, 275, 291, 292, 293, 294, 295, 311, 312, 313, 314, 315, 331
 332, 333, 334, 335, 351, 352, 353, 354, 355, 371, 372, 373, 374, 375, 391, 392
 393, 394, 395, 411, 412, 413, 414, 415, 431, 432, 433, 434, 435, 451, 452, 453
 454, 455, 471, 472, 473, 474, 475, 491, 492, 493, 494, 495, 511, 512, 513, 514
 515, 531, 532, 533, 534, 535, 551, 552, 553, 554, 555
*Elset, elset=_Surf-1_S2, internal, instance=P50-1, generate
 859,  938,    1
*Surface, type=ELEMENT, name=Surf-1
_Surf-1_S4, S4
_Surf-1_S3, S3
_Surf-1_S2, S2
*Elset, elset=_Surf-2_S4, internal, instance=P50-1
 154, 158, 162, 166, 170, 174, 178, 182, 186, 190, 194, 198, 202, 206, 210, 214
 218, 222, 226, 230, 234, 238, 242, 246, 250, 254, 258, 262, 266, 270, 574, 578
 582, 586, 590, 594, 598, 602, 606, 610, 614, 618, 622, 626, 630, 634, 638, 642
 646, 650, 654, 658, 662, 666, 670, 674, 678, 682, 686, 690, 694, 698
*Elset, elset=_Surf-2_S3, internal, instance=P50-1
 271, 272, 273, 274, 275, 291, 292, 293, 294, 295, 311, 312, 313, 314, 315, 331
 332, 333, 334, 335, 351, 352, 353, 354, 355, 371, 372, 373, 374, 375, 391, 392
 393, 394, 395, 411, 412, 413, 414, 415, 431, 432, 433, 434, 435, 451, 452, 453
 454, 455, 471, 472, 473, 474, 475, 491, 492, 493, 494, 495, 511, 512, 513, 514
 515, 531, 532, 533, 534, 535, 551, 552, 553, 554, 555
*Elset, elset=_Surf-2_S2, internal, instance=P50-1, generate
 859,  938,    1
*Surface, type=ELEMENT, name=Surf-2
_Surf-2_S4, S4
_Surf-2_S3, S3
_Surf-2_S2, S2
*End Assembly
*Amplitude, name=Amp-1
            0.1,           514.8,             0.2,          1029.6,             0.3,          1544.4,             0.4,          2059.2
            0.5,           2574.,             0.6,          3088.8,             0.7,          3603.6,             0.8,          4118.4
            0.9,          4633.2,              1.,           5148.
** 
** MATERIALS
** 
*Material, name=Material-1
*Elastic
 31622.8, 0.2
** ----------------------------------------------------------------
** 
** STEP: Step-1
** 
*Step, name=Step-1, nlgeom=NO
*Static
0.1, 1., 1e-05, 1.
** 
** BOUNDARY CONDITIONS
** 
** Name: BC-1 Type: Symmetry/Antisymmetry/Encastre
*Boundary
Set-1, ZASYMM
** Name: BC-2 Type: Symmetry/Antisymmetry/Encastre
*Boundary
Set-2, ENCASTRE
** 
** LOADS
** 
** Name: Load-1   Type: Pressure
*Dsload
Surf-2, P, 0.8
** 
** OUTPUT REQUESTS
** 
*Restart, write, frequency=0
** 
** FIELD OUTPUT: F-Output-2
** 
*Output, field
*Node Output
U, 
*Element Output, directions=YES
E, S
** 
** FIELD OUTPUT: F-Output-1
** 
*Output, field, variable=PRESELECT
** 
** HISTORY OUTPUT: H-Output-1
** 
*Output, history, variable=PRESELECT
*End Step
