*Heading
** Job name: 60S Model name: 60
** Generated by: Abaqus/CAE 2018
*Preprint, echo=NO, model=NO, history=NO, contact=NO
**
** PARTS
**
*Part, name=P60
*End Part
**  
**
** ASSEMBLY
**
*Assembly, name=Assembly
**  
*Instance, name=P60-1, part=P60
*Node
      1,         250.,         250.,          50.
      2,         190.,         250.,         100.
      3,         250.,         250.,         100.
      4,         190.,           0.,         100.
      5,         250.,           0.,          50.
      6,         250.,           0.,         100.
      7,         250.,           0.,           0.
      8,         250.,         250.,           0.
      9,           0.,         250.,          50.
     10,           0.,           0.,          50.
     11,           0.,           0.,           0.
     12,           0.,         250.,           0.
     13,         250.,         250.,   91.6666641
     14,         250.,         250.,   83.3333359
     15,         250.,         250.,          75.
     16,         250.,         250.,   66.6666641
     17,         250.,         250.,   58.3333321
     18,         244.,         250.,          55.
     19,         238.,         250.,          60.
     20,         232.,         250.,          65.
** ... 8812 like lines cut
*Element, type=C3D8R
   1,  666,  667, 3606, 3327,   16,   17,  364,  363
   2,  667,   56,  396, 3606,   17,    1,   18,  364
   3, 3327, 3606, 3607, 3328,  363,  364,  366,  365
   4, 3606,  396,  397, 3607,  364,   18,   19,  366
   5, 3328, 3607, 3608, 3329,  365,  366,  368,  367
   6, 3607,  397,  398, 3608,  366,   19,   20,  368
   7, 3329, 3608, 3609, 3330,  367,  368,  370,  369
   8, 3608,  398,  399, 3609,  368,   20,   21,  370
   9, 3330, 3609, 3610, 3331,  369,  370,  372,  371
  10, 3609,  399,  400, 3610,  370,   21,   22,  372
  11, 3331, 3610, 3397, 3303,  371,  372,  374,  373
  12, 3610,  400,  401, 3397,  372,   22,   23,  374
  13,  668,  669, 3611, 3332,  666,  667, 3606, 3327
  14,  669,   55,  402, 3611,  667,   56,  396, 3606
  15, 3332, 3611, 3612, 3333, 3327, 3606, 3607, 3328
  16, 3611,  402,  403, 3612, 3606,  396,  397, 3607
  17, 3333, 3612, 3613, 3334, 3328, 3607, 3608, 3329
  18, 3612,  403,  404, 3613, 3607,  397,  398, 3608
  19, 3334, 3613, 3614, 3335, 3329, 3608, 3609, 3330
  20, 3613,  404,  405, 3614, 3608,  398,  399, 3609
** ... 7234 like lines cut
*Nset, nset=Set-1, generate
    1,  8832,     1
*Elset, elset=Set-1, generate
    1,  7254,     1
** Section: Section-1
*Solid Section, elset=Set-1, material=Material-1
,
*End Instance
**  
*Nset, nset=Set-1, instance=P60-1
    1,    2,    3,    4,    5,    6,    7,    8,    9,   10,   11,   12,   13,   14,   15,   16
   17,   18,   19,   20,   21,   22,   23,   24,   25,   26,   27,   28,   29,   30,   31,   32
   33,   34,   35,   36,   37,   38,   39,   40,   41,   42,   43,   44,   45,   46,   47,   48
   49,   50,   51,   52,   53,   54,   55,   56,   57,   58,   59,   60,   61,   62,   63,   94
   95,   96,   97,   98,   99,  100,  101,  102,  103,  104,  105,  106,  107,  108,  109,  110
  111,  112,  113,  114,  115,  116,  117,  118,  119,  120,  121,  122,  123,  124,  125,  126
  127,  128,  129,  130,  131,  132,  133,  134,  135,  136,  137,  138,  139,  140,  141,  142
  143,  144,  145,  146,  147,  148,  149,  150,  151,  152,  153,  154,  155,  156,  157,  158
  159,  160,  161,  162,  163,  164,  165,  166,  167,  168,  169,  170,  171,  172,  173,  174
  175,  176,  177,  178,  179,  180,  181,  182,  183,  184,  185,  186,  187,  188,  189,  190
  191,  192,  193,  194,  195,  196,  197,  198,  199,  200,  201,  202,  203,  204,  205,  206
  207,  208,  209,  210,  211,  212,  213,  214,  215,  216,  217,  218,  219,  220,  221,  222
  223,  224,  225,  226,  227,  228,  229,  230,  231,  232,  233,  234,  235,  236,  237,  238
  239,  240,  241,  242,  243,  244,  245,  246,  247,  248,  249,  250,  251,  252,  253,  254
  255,  256,  257,  258,  259,  260,  261,  262,  263,  264,  265,  266,  267,  268,  269,  270
  271,  272,  273,  274,  275,  276,  277,  278,  279,  280,  281,  282,  283,  284,  285,  286
  287,  288,  289,  290,  291,  292,  293,  294,  295,  296,  297,  298,  299,  300,  301,  302
  303,  304,  305,  306,  307,  308,  309,  310,  311,  312,  313,  314,  315,  316,  317,  318
  319,  320,  321,  322,  323,  324,  325,  326,  327,  328,  329,  330,  331,  332,  333,  334
  335,  336,  337,  338,  339,  340,  341,  342,  343,  344,  345,  346,  347,  348,  349,  350
** ... 52 like lines cut
*Elset, elset=Set-1, instance=P60-1
    1,    2,    3,    4,    5,    6,    7,    8,    9,   10,   11,   12,   13,   14,   25,   26
   37,   38,   49,   50,   61,   62,   73,   74,   85,   86,   97,   98,  109,  110,  121,  122
  133,  134,  145,  146,  157,  158,  169,  170,  181,  182,  183,  184,  185,  186,  187,  188
  301,  302,  303,  304,  305,  306,  307,  308,  309,  310,  311,  312,  313,  314,  315,  316
  317,  318,  319,  320,  321,  322,  323,  324,  330,  336,  342,  348,  354,  360,  366,  372
  378,  384,  390,  396,  402,  408,  414,  420,  426,  432,  438,  444,  450,  456,  462,  468
  474,  480,  486,  492,  498,  504,  510,  516,  522,  528,  534,  540,  546,  552,  558,  564
  570,  576,  582,  588,  594,  600,  606,  612,  618,  624,  630,  636,  642,  648,  654,  660
  661,  662,  663,  664,  725,  726,  727,  728,  789,  790,  791,  792,  793,  794,  795,  796
  797,  798,  799,  800,  801,  802,  803,  804,  820,  836,  852,  868,  884,  885,  886,  887
  888,  889,  890,  891,  892,  893,  894,  895,  896,  897,  898,  899,  900,  916,  932,  948
  964,  980,  981,  982,  983,  984,  985,  986,  992,  998, 1004, 1010, 1016, 1022, 1028, 1034
 1040, 1046, 1052, 1058, 1064, 1070, 1076, 1077, 1078, 1079, 1080, 1081, 1082, 1088, 1094, 1100
 1106, 1112, 1118, 1124, 1130, 1136, 1142, 1148, 1154, 1160, 1166, 1172, 1173, 1174, 1175, 1176
 1177, 1178, 1184, 1190, 1196, 1202, 1208, 1214, 1220, 1226, 1232, 1238, 1244, 1250, 1256, 1262
 1268, 1269, 1270, 1271, 1272, 1273, 1274, 1280, 1286, 1292, 1298, 1304, 1310, 1316, 1322, 1328
 1334, 1340, 1346, 1352, 1358, 1364, 1365, 1366, 1367, 1368, 1369, 1370, 1371, 1372, 1373, 1374
 1375, 1376, 1377, 1378, 1379, 1380, 1381, 1382, 1383, 1384, 1385, 1386, 1387, 1388, 1389, 1390
 1391, 1392, 1393, 1394, 1395, 1396, 1397, 1398, 1429, 1430, 1461, 1462, 1493, 1494, 1525, 1526
 1557, 1558, 1589, 1590, 1621, 1622, 1623, 1624, 1625, 1626, 1627, 1628, 1629, 1630, 1631, 1632
** ... 42 like lines cut
*Nset, nset=Set-2, instance=P60-1
    7,    8,   11,   12,  155,  156,  157,  158,  159,  160,  161,  162,  163,  164,  165,  166
  167,  168,  169,  170,  171,  172,  173,  174,  175,  176,  177,  178,  179,  180,  181,  182
  183,  184,  185,  186,  187,  188,  189,  190,  191,  192,  193,  194,  195,  196,  197,  198
  199,  200,  201,  202,  203,  204,  205,  206,  207,  208,  209,  210,  211,  212,  213,  214
  215,  216,  217,  218,  219,  220,  221,  222,  223,  224,  225,  226,  227,  228,  229,  230
  231,  232,  233,  234,  235,  236,  237,  238,  239,  240,  241,  242,  243,  244,  333,  334
  335,  336,  337,  338,  339,  340,  341,  342,  343,  344,  345,  346,  347,  348,  349,  350
  351,  352,  353,  354,  355,  356,  357,  358,  359,  360,  361,  362, 1513, 1514, 1515, 1516
 1517, 1518, 1519, 1520, 1521, 1522, 1523, 1524, 1525, 1526, 1527, 1528, 1529, 1530, 1531, 1532
 1533, 1534, 1535, 1536, 1537, 1538, 1539, 1540, 1541, 1542, 1543, 1544, 1545, 1546, 1547, 1548
 1549, 1550, 1551, 1552, 1553, 1554, 1555, 1556, 1557, 1558, 1559, 1560, 1561, 1562, 1563, 1564
 1565, 1566, 1567, 1568, 1569, 1570, 1571, 1572, 1573, 1574, 1575, 1576, 1577, 1578, 1579, 1580
 1581, 1582, 1583, 1584, 1585, 1586, 1587, 1588, 1589, 1590, 1591, 1592, 1593, 1594, 1595, 1596
 1597, 1598, 1599, 1600, 1601, 1602, 1603, 1604, 1605, 1606, 1607, 1608, 1609, 1610, 1611, 1612
 1613, 1614, 1615, 1616, 1617, 1618, 1619, 1620, 1621, 1622, 1623, 1624, 1625, 1626, 1627, 1628
 1629, 1630, 1631, 1632, 1633, 1634, 1635, 1636, 1637, 1638, 1639, 1640, 1641, 1642, 1643, 1644
 1645, 1646, 1647, 1648, 1649, 1650, 1651, 1652, 1653, 1654, 1655, 1656, 1657, 1658, 1659, 1660
 1661, 1662, 1663, 1664, 1665, 1666, 1667, 1668, 1669, 1670, 1671, 1672, 1673, 1674, 1675, 1676
 1677, 1678, 1679, 1680, 1681, 1682, 1683, 1684, 1685, 1686, 1687, 1688, 1689, 1690, 1691, 1692
 1693, 1694, 1695, 1696, 1697, 1698, 1699, 1700, 1701, 1702, 1703, 1704, 1705, 1706, 1707, 1708
** ... 44 like lines cut
*Elset, elset=Set-2, instance=P60-1
 1864, 1868, 1872, 1876, 1880, 1884, 1888, 1892, 1896, 1900, 1904, 1908, 1912, 1916, 1920, 1924
 1928, 1932, 1936, 1940, 1944, 1948, 1952, 1956, 1960, 1964, 1968, 1972, 1976, 1980, 1984, 1988
 1992, 1996, 2000, 2004, 2008, 2012, 2016, 2020, 2024, 2028, 2032, 2036, 2040, 2044, 2048, 2052
 2056, 2060, 2064, 2068, 2072, 2076, 2080, 2084, 2088, 2092, 2096, 2100, 2104, 2108, 2112, 2116
 2120, 2124, 2128, 2132, 2136, 2140, 2144, 2148, 2152, 2156, 2160, 2164, 2168, 2172, 2176, 2180
 2184, 2188, 2192, 2196, 2200, 2204, 2208, 2212, 2216, 2220, 2224, 2228, 2232, 2236, 2240, 2244
 2248, 2252, 2256, 2260, 2264, 2268, 2272, 2276, 2280, 2284, 2288, 2292, 2296, 2300, 2304, 2308
 2312, 2316, 2320, 2324, 2328, 2332, 2336, 2340, 2341, 2342, 2343, 2344, 2345, 2346, 2347, 2348
 2349, 2350, 2351, 2352, 2353, 2354, 2355, 2356, 2405, 2406, 2407, 2408, 2409, 2410, 2411, 2412
 2413, 2414, 2415, 2416, 2417, 2418, 2419, 2420, 2469, 2470, 2471, 2472, 2473, 2474, 2475, 2476
 2477, 2478, 2479, 2480, 2481, 2482, 2483, 2484, 2533, 2534, 2535, 2536, 2537, 2538, 2539, 2540
 2541, 2542, 2543, 2544, 2545, 2546, 2547, 2548, 2597, 2598, 2599, 2600, 2601, 2602, 2603, 2604
 2605, 2606, 2607, 2608, 2609, 2610, 2611, 2612, 2661, 2662, 2663, 2664, 2665, 2666, 2667, 2668
 2669, 2670, 2671, 2672, 2673, 2674, 2675, 2676, 2725, 2726, 2727, 2728, 2729, 2730, 2731, 2732
 2733, 2734, 2735, 2736, 2737, 2738, 2739, 2740, 2789, 2790, 2791, 2792, 2793, 2794, 2795, 2796
 2797, 2798, 2799, 2800, 2801, 2802, 2803, 2804, 4406, 4410, 4414, 4418, 4422, 4426, 4430, 4434
 4438, 4442, 4446, 4450, 4454, 4458, 4462, 4466, 4470, 4474, 4478, 4482, 4486, 4490, 4494, 4498
 4502, 4506, 4510, 4514, 4518, 4522, 4526, 4530, 4534, 4538, 4542, 4546, 4550, 4554, 4558, 4562
 4566, 4570, 4574, 4578, 4582, 4586, 4590, 4594, 4598, 4602, 4606, 4610, 4614, 4618, 4622, 4626
 4630, 4634, 4638, 4642, 4646, 4650, 4654, 4658, 4662, 4666, 4670, 4674, 4678, 4682, 4686, 4690
** ... 41 like lines cut
*Elset, elset=_Surf-1_S4, internal, instance=P60-1
 184, 188, 192, 196, 200, 204, 208, 212, 216, 220, 224, 228, 232, 236, 240, 244
 248, 252, 256, 260, 264, 268, 272, 276, 280, 284, 288, 292, 296, 300, 664, 668
 672, 676, 680, 684, 688, 692, 696, 700, 704, 708, 712, 716, 720, 724, 728, 732
 736, 740, 744, 748, 752, 756, 760, 764, 768, 772, 776, 780, 784, 788
*Elset, elset=_Surf-1_S3, internal, instance=P60-1
 301, 302, 303, 304, 305, 306, 325, 326, 327, 328, 329, 330, 349, 350, 351, 352
 353, 354, 373, 374, 375, 376, 377, 378, 397, 398, 399, 400, 401, 402, 421, 422
 423, 424, 425, 426, 445, 446, 447, 448, 449, 450, 469, 470, 471, 472, 473, 474
 493, 494, 495, 496, 497, 498, 517, 518, 519, 520, 521, 522, 541, 542, 543, 544
 545, 546, 565, 566, 567, 568, 569, 570, 589, 590, 591, 592, 593, 594, 613, 614
 615, 616, 617, 618, 637, 638, 639, 640, 641, 642
*Elset, elset=_Surf-1_S2, internal, instance=P60-1, generate
  981,  1076,     1
*Surface, type=ELEMENT, name=Surf-1
_Surf-1_S4, S4
_Surf-1_S3, S3
_Surf-1_S2, S2
*Elset, elset=_Surf-2_S4, internal, instance=P60-1
 184, 188, 192, 196, 200, 204, 208, 212, 216, 220, 224, 228, 232, 236, 240, 244
 248, 252, 256, 260, 264, 268, 272, 276, 280, 284, 288, 292, 296, 300, 664, 668
 672, 676, 680, 684, 688, 692, 696, 700, 704, 708, 712, 716, 720, 724, 728, 732
 736, 740, 744, 748, 752, 756, 760, 764, 768, 772, 776, 780, 784, 788
*Elset, elset=_Surf-2_S3, internal, instance=P60-1
 301, 302, 303, 304, 305, 306, 325, 326, 327, 328, 329, 330, 349, 350, 351, 352
 353, 354, 373, 374, 375, 376, 377, 378, 397, 398, 399, 400, 401, 402, 421, 422
 423, 424, 425, 426, 445, 446, 447, 448, 449, 450, 469, 470, 471, 472, 473, 474
 493, 494, 495, 496, 497, 498, 517, 518, 519, 520, 521, 522, 541, 542, 543, 544
 545, 546, 565, 566, 567, 568, 569, 570, 589, 590, 591, 592, 593, 594, 613, 614
 615, 616, 617, 618, 637, 638, 639, 640, 641, 642
*Elset, elset=_Surf-2_S2, internal, instance=P60-1, generate
  981,  1076,     1
*Surface, type=ELEMENT, name=Surf-2
_Surf-2_S4, S4
_Surf-2_S3, S3
_Surf-2_S2, S2
*End Assembly
*Amplitude, name=Amp-1
            0.1,           514.8,             0.2,          1029.6,             0.3,          1544.4,             0.4,          2059.2
            0.5,           2574.,             0.6,          3088.8,             0.7,          3603.6,             0.8,          4118.4
            0.9,          4633.2,              1.,           5148.
** 
** MATERIALS
** 
*Material, name=Material-1
*Elastic
 31622.8, 0.2
** ----------------------------------------------------------------
** 
** STEP: Step-1
** 
*Step, name=Step-1, nlgeom=NO
*Static
0.1, 1., 1e-05, 1.
** 
** BOUNDARY CONDITIONS
** 
** Name: BC-1 Type: Symmetry/Antisymmetry/Encastre
*Boundary
Set-1, ZASYMM
** Name: BC-2 Type: Symmetry/Antisymmetry/Encastre
*Boundary
Set-2, ENCASTRE
** 
** LOADS
** 
** Name: Load-1   Type: Pressure
*Dsload
Surf-2, P, 0.8
** 
** OUTPUT REQUESTS
** 
*Restart, write, frequency=0
** 
** FIELD OUTPUT: F-Output-2
** 
*Output, field
*Node Output
U, 
*Element Output, directions=YES
E, S
** 
** FIELD OUTPUT: F-Output-1
** 
*Output, field, variable=PRESELECT
** 
** HISTORY OUTPUT: H-Output-1
** 
*Output, history, variable=PRESELECT
*End Step
