*Heading
** Job name: 70S Model name: 70
** Generated by: Abaqus/CAE 2018
*Preprint, echo=NO, model=NO, history=NO, contact=NO
**
** PARTS
**
*Part, name=P70
*End Part
**  
**
** ASSEMBLY
**
*Assembly, name=Assembly
**  
*Instance, name=P70-1, part=P70
*Node
      1,         250.,           0.,    63.636364
      2,         250.,           0.,           0.
      3,         250.,   129.032257,           0.
      4,         250.,   129.032257,    63.636364
      5,   163.793106,           0.,           0.
      6,   163.793106,   129.032257,           0.
      7,   157.558762,   129.032242,   82.3336563
      8,   158.036209,           0.,   81.3998871
      9,         250.,         250.,           0.
     10,         250.,         250.,    63.636364
     11,   163.793106,         250.,           0.
     12,   157.942673,         250.,   81.1822128
     13,         250.,         250.,         100.
     14,         250.,   129.032257,         100.
     15,   186.363632,         250.,         100.
     16,   186.363632,   129.032257,         100.
     17,         250.,           0.,         100.
     18,   186.363632,           0.,         100.
     19,           0.,           0.,           0.
     20,           0.,   129.032257,           0.
** ... 9836 like lines cut
*Element, type=C3D8R
   1,  127, 1127, 4376,  857,    1,   34,  677,   75
   2, 1127, 1128, 4377, 4376,   34,   35,  678,  677
   3, 1128, 1129, 4378, 4377,   35,   36,  679,  678
   4, 1129, 1130, 4379, 4378,   36,   37,  680,  679
   5, 1130, 1131, 4380, 4379,   37,   38,  681,  680
   6, 1131, 1132, 4381, 4380,   38,   39,  682,  681
   7, 1132,  145,  992, 4381,   39,    2,   40,  682
   8,  857, 4376, 4382,  858,   75,  677,  683,   74
   9, 4376, 4377, 4383, 4382,  677,  678,  684,  683
  10, 4377, 4378, 4384, 4383,  678,  679,  685,  684
  11, 4378, 4379, 4385, 4384,  679,  680,  686,  685
  12, 4379, 4380, 4386, 4385,  680,  681,  687,  686
  13, 4380, 4381, 4387, 4386,  681,  682,  688,  687
  14, 4381,  992,  993, 4387,  682,   40,   41,  688
  15,  858, 4382, 4388,  859,   74,  683,  689,   73
  16, 4382, 4383, 4389, 4388,  683,  684,  690,  689
  17, 4383, 4384, 4390, 4389,  684,  685,  691,  690
  18, 4384, 4385, 4391, 4390,  685,  686,  692,  691
  19, 4385, 4386, 4392, 4391,  686,  687,  693,  692
  20, 4386, 4387, 4393, 4392,  687,  688,  694,  693
** ... 8226 like lines cut
*Nset, nset=Set-1, generate
    1,  9856,     1
*Elset, elset=Set-1, generate
    1,  8246,     1
** Section: Section-1
*Solid Section, elset=Set-1, material=Material-1
,
*End Instance
**  
*Nset, nset=Set-1, instance=P70-1
    1,    2,    3,    4,    5,    8,    9,   10,   11,   12,   13,   14,   15,   17,   18,   19
   20,   21,   22,   23,   24,   25,   26,   29,   30,   31,   32,   33,   34,   35,   36,   37
   38,   39,   40,   41,   42,   43,   44,   45,   46,   47,   48,   49,   50,   51,   52,   53
   54,   55,   56,   57,   58,   59,   60,   61,   62,   63,   64,   65,   66,   67,   68,   69
   70,   71,   72,   73,   74,   75,   76,   77,   78,   79,   80,   81,  127,  128,  129,  130
  131,  132,  133,  134,  135,  145,  146,  147,  148,  149,  150,  151,  152,  153,  154,  155
  156,  157,  158,  159,  160,  161,  162,  163,  164,  165,  166,  167,  168,  169,  170,  171
  172,  173,  174,  175,  176,  177,  178,  179,  180,  181,  182,  183,  184,  185,  186,  187
  202,  203,  204,  205,  206,  207,  222,  223,  224,  225,  226,  227,  228,  229,  230,  231
  232,  233,  234,  235,  236,  237,  238,  239,  240,  241,  242,  243,  244,  245,  246,  247
  248,  249,  250,  251,  252,  253,  254,  255,  256,  257,  258,  259,  260,  261,  262,  289
  290,  291,  292,  293,  294,  295,  296,  297,  298,  299,  300,  301,  302,  303,  304,  305
  306,  307,  308,  309,  310,  311,  312,  313,  314,  315,  331,  332,  333,  334,  335,  336
  337,  338,  339,  340,  341,  342,  343,  344,  345,  346,  347,  348,  349,  350,  351,  352
  353,  354,  355,  356,  357,  358,  359,  360,  361,  362,  363,  364,  365,  366,  367,  368
  369,  370,  371,  372,  373,  374,  375,  394,  395,  396,  397,  398,  399,  400,  401,  402
  403,  404,  405,  406,  407,  408,  409,  410,  411,  412,  413,  414,  415,  416,  417,  418
  419,  420,  421,  422,  423,  424,  425,  426,  445,  446,  447,  448,  449,  450,  451,  452
  453,  454,  455,  456,  457,  458,  459,  460,  461,  462,  463,  464,  465,  466,  467,  468
  469,  470,  471,  472,  473,  474,  475,  476,  477,  478,  479,  480,  481,  482,  483,  484
** ... 58 like lines cut
*Elset, elset=Set-1, instance=P70-1
    1,    2,    3,    4,    5,    6,    7,    8,    9,   10,   11,   12,   13,   14,   15,   16
   17,   18,   19,   20,   21,   22,   23,   24,   25,   26,   27,   28,   29,   30,   31,   32
   33,   34,   35,   36,   37,   38,   39,   40,   41,   42,   43,   44,   45,   46,   47,   48
   49,   50,   51,   52,   53,   54,   55,   56,   57,   58,   59,   60,   61,   62,   63,   64
   65,   66,   67,   68,   69,   70,   71,   72,   73,   74,   75,   76,   77,   78,   79,   80
   81,   82,   83,   84,   85,   86,   87,   88,   89,   90,   91,   92,   93,   94,   95,   96
   97,   98,   99,  100,  101,  102,  103,  104,  105,  106,  107,  108,  109,  110,  111,  112
  113,  114,  115,  116,  117,  118,  119,  225,  226,  227,  228,  229,  230,  231,  337,  338
  339,  340,  341,  342,  343,  449,  450,  451,  452,  453,  454,  455,  561,  562,  563,  564
  565,  566,  567,  673,  674,  675,  676,  677,  678,  679,  785,  786,  787,  788,  789,  790
  791,  897,  898,  899,  900,  901,  902,  903, 1009, 1010, 1011, 1012, 1013, 1014, 1015, 1121
 1122, 1123, 1124, 1125, 1126, 1127, 1128, 1129, 1130, 1131, 1132, 1133, 1134, 1135, 1136, 1137
 1138, 1139, 1140, 1141, 1142, 1143, 1144, 1145, 1146, 1147, 1148, 1149, 1150, 1151, 1152, 1153
 1154, 1155, 1156, 1157, 1158, 1159, 1160, 1161, 1162, 1163, 1164, 1165, 1166, 1167, 1168, 1169
 1170, 1171, 1172, 1173, 1174, 1175, 1176, 1177, 1178, 1179, 1180, 1181, 1182, 1183, 1184, 1185
 1186, 1187, 1188, 1189, 1190, 1191, 1192, 1193, 1194, 1195, 1196, 1197, 1198, 1199, 1200, 1201
 1202, 1203, 1204, 1205, 1206, 1207, 1208, 1209, 1210, 1211, 1212, 1213, 1214, 1215, 1216, 1217
 1218, 1219, 1220, 1221, 1222, 1223, 1224, 1225, 1240, 1255, 1270, 1285, 1300, 1315, 1330, 1345
 1360, 1375, 1390, 1405, 1420, 1435, 1450, 1465, 1480, 1495, 1510, 1525, 1540, 1555, 1570, 1585
 1600, 1615, 1630, 1645, 1660, 1675, 1690, 1705, 1720, 1735, 1750, 1765, 1780, 1795, 1810, 1825
** ... 48 like lines cut
*Nset, nset=Set-2, instance=P70-1
    2,    3,    5,    6,    9,   11,   19,   20,   23,   40,   41,   42,   43,   44,   45,   46
   47,   48,   49,   50,   51,   52,   53,   54,   82,   83,   84,   85,   86,   87,   88,   89
   90,   91,   92,   93,   94,   95,   96,  136,  137,  138,  139,  140,  141,  142,  143,  144
  145,  146,  147,  148,  149,  150,  151,  152,  153,  154,  155,  156,  157,  158,  159,  160
  161,  162,  163,  164,  165,  166,  167,  188,  189,  190,  191,  192,  193,  194,  195,  196
  197,  198,  199,  200,  201,  231,  232,  233,  234,  235,  236,  237,  238,  239,  343,  344
  345,  346,  347,  348,  349,  350,  351,  352,  353,  354,  355,  356,  357,  358,  359,  360
  361,  362,  363,  364,  365,  366,  367,  368,  369,  370,  371,  372,  373,  374,  375,  376
  377,  378,  379,  380,  381,  382,  383,  384,  385,  386,  387,  388,  389,  390,  391,  392
  393,  457,  458,  459,  460,  461,  462,  463,  464,  465,  466,  467,  468,  469,  470,  471
  472,  473,  474,  475,  476,  477,  478,  479,  480,  481,  482,  483,  484,  485,  486,  487
  488,  992,  993,  994,  995,  996,  997,  998,  999, 1000, 1001, 1002, 1003, 1004, 1005, 1006
 1007, 1008, 1009, 1010, 1011, 1012, 1013, 1014, 1015, 1016, 1017, 1018, 1019, 1020, 1021, 1022
 1023, 1024, 1025, 1026, 1027, 1028, 1029, 1030, 1031, 1032, 1033, 1034, 1035, 1036, 1037, 1038
 1039, 1040, 1041, 1042, 1043, 1044, 1045, 1046, 1047, 1048, 1049, 1050, 1051, 1052, 1053, 1054
 1055, 1056, 1057, 1058, 1059, 1060, 1061, 1062, 1063, 1064, 1065, 1066, 1067, 1068, 1069, 1070
 1071, 1072, 1073, 1074, 1075, 1076, 1077, 1078, 1079, 1080, 1081, 1082, 1083, 1084, 1085, 1086
 1087, 1088, 1089, 1090, 1091, 1092, 1093, 1094, 1095, 1096, 1097, 1098, 1099, 1100, 1101, 1102
 1103, 1104, 1105, 1106, 1107, 1108, 1109, 1110, 1111, 1112, 1113, 1114, 1115, 1116, 1117, 1118
 1119, 1120, 1121, 1122, 1123, 1124, 1125, 1126, 1457, 1458, 1459, 1460, 1461, 1462, 1463, 1464
** ... 40 like lines cut
*Elset, elset=Set-2, instance=P70-1
    7,   14,   21,   28,   35,   42,   49,   56,   63,   70,   77,   84,   91,   98,  105,  112
  119,  126,  133,  140,  147,  154,  161,  168,  175,  182,  189,  196,  203,  210,  217,  224
  231,  238,  245,  252,  259,  266,  273,  280,  287,  294,  301,  308,  315,  322,  329,  336
  343,  350,  357,  364,  371,  378,  385,  392,  399,  406,  413,  420,  427,  434,  441,  448
  455,  462,  469,  476,  483,  490,  497,  504,  511,  518,  525,  532,  539,  546,  553,  560
  567,  574,  581,  588,  595,  602,  609,  616,  623,  630,  637,  644,  651,  658,  665,  672
  679,  686,  693,  700,  707,  714,  721,  728,  735,  742,  749,  756,  763,  770,  777,  784
  791,  798,  805,  812,  819,  826,  833,  840,  847,  854,  861,  868,  875,  882,  889,  896
  903,  910,  917,  924,  931,  938,  945,  952,  959,  966,  973,  980,  987,  994, 1001, 1008
 1015, 1022, 1029, 1036, 1043, 1050, 1057, 1064, 1071, 1078, 1085, 1092, 1099, 1106, 1113, 1120
 1121, 1122, 1123, 1124, 1125, 1126, 1127, 1128, 1129, 1130, 1131, 1132, 1133, 1134, 1135, 1226
 1227, 1228, 1229, 1230, 1231, 1232, 1233, 1234, 1235, 1236, 1237, 1238, 1239, 1240, 1331, 1332
 1333, 1334, 1335, 1336, 1337, 1338, 1339, 1340, 1341, 1342, 1343, 1344, 1345, 1436, 1437, 1438
 1439, 1440, 1441, 1442, 1443, 1444, 1445, 1446, 1447, 1448, 1449, 1450, 1541, 1542, 1543, 1544
 1545, 1546, 1547, 1548, 1549, 1550, 1551, 1552, 1553, 1554, 1555, 1646, 1647, 1648, 1649, 1650
 1651, 1652, 1653, 1654, 1655, 1656, 1657, 1658, 1659, 1660, 1751, 1752, 1753, 1754, 1755, 1756
 1757, 1758, 1759, 1760, 1761, 1762, 1763, 1764, 1765, 1856, 1857, 1858, 1859, 1860, 1861, 1862
 1863, 1864, 1865, 1866, 1867, 1868, 1869, 1870, 1961, 1962, 1963, 1964, 1965, 1966, 1967, 1968
 1969, 1970, 1971, 1972, 1973, 1974, 1975, 2066, 2067, 2068, 2069, 2070, 2071, 2072, 2073, 2074
 2075, 2076, 2077, 2078, 2079, 2080, 3411, 3412, 3413, 3414, 3415, 3416, 3417, 3418, 3419, 3420
** ... 37 like lines cut
*Elset, elset=_Surf-1_S4, internal, instance=P70-1, generate
 2174,  2770,     4
*Elset, elset=_Surf-1_S3, internal, instance=P70-1
 2771, 2772, 2773, 2774, 2775, 2776, 2777, 2778, 2779, 2780, 2781, 2782, 2783, 2784, 2785, 2786
 2835, 2836, 2837, 2838, 2839, 2840, 2841, 2842, 2843, 2844, 2845, 2846, 2847, 2848, 2849, 2850
 2899, 2900, 2901, 2902, 2903, 2904, 2905, 2906, 2907, 2908, 2909, 2910, 2911, 2912, 2913, 2914
 2963, 2964, 2965, 2966, 2967, 2968, 2969, 2970, 2971, 2972, 2973, 2974, 2975, 2976, 2977, 2978
 3027, 3028, 3029, 3030, 3031, 3032, 3033, 3034, 3035, 3036, 3037, 3038, 3039, 3040, 3041, 3042
 3091, 3092, 3093, 3094, 3095, 3096, 3097, 3098, 3099, 3100, 3101, 3102, 3103, 3104, 3105, 3106
 3155, 3156, 3157, 3158, 3159, 3160, 3161, 3162, 3163, 3164, 3165, 3166, 3167, 3168, 3169, 3170
 3219, 3220, 3221, 3222, 3223, 3224, 3225, 3226, 3227, 3228, 3229, 3230, 3231, 3232, 3233, 3234
 3283, 3284, 3285, 3286, 3287, 3288, 3289, 3290, 3291, 3292, 3293, 3294, 3295, 3296, 3297, 3298
 3347, 3348, 3349, 3350, 3351, 3352, 3353, 3354, 3355, 3356, 3357, 3358, 3359, 3360, 3361, 3362
 7534, 7538, 7542, 7546, 7550, 7554, 7558, 7562, 7566, 7570, 7574, 7578, 7582, 7586, 7590, 7594
 7902, 7903, 7904, 7905, 7906, 7907, 7908, 7909, 7910, 7911, 7912, 7913, 7914, 7915, 7916
*Surface, type=ELEMENT, name=Surf-1
_Surf-1_S4, S4
_Surf-1_S3, S3
*Elset, elset=_Surf-2_S4, internal, instance=P70-1, generate
 2174,  2770,     4
*Elset, elset=_Surf-2_S3, internal, instance=P70-1
 2771, 2772, 2773, 2774, 2775, 2776, 2777, 2778, 2779, 2780, 2781, 2782, 2783, 2784, 2785, 2786
 2835, 2836, 2837, 2838, 2839, 2840, 2841, 2842, 2843, 2844, 2845, 2846, 2847, 2848, 2849, 2850
 2899, 2900, 2901, 2902, 2903, 2904, 2905, 2906, 2907, 2908, 2909, 2910, 2911, 2912, 2913, 2914
 2963, 2964, 2965, 2966, 2967, 2968, 2969, 2970, 2971, 2972, 2973, 2974, 2975, 2976, 2977, 2978
 3027, 3028, 3029, 3030, 3031, 3032, 3033, 3034, 3035, 3036, 3037, 3038, 3039, 3040, 3041, 3042
 3091, 3092, 3093, 3094, 3095, 3096, 3097, 3098, 3099, 3100, 3101, 3102, 3103, 3104, 3105, 3106
 3155, 3156, 3157, 3158, 3159, 3160, 3161, 3162, 3163, 3164, 3165, 3166, 3167, 3168, 3169, 3170
 3219, 3220, 3221, 3222, 3223, 3224, 3225, 3226, 3227, 3228, 3229, 3230, 3231, 3232, 3233, 3234
 3283, 3284, 3285, 3286, 3287, 3288, 3289, 3290, 3291, 3292, 3293, 3294, 3295, 3296, 3297, 3298
 3347, 3348, 3349, 3350, 3351, 3352, 3353, 3354, 3355, 3356, 3357, 3358, 3359, 3360, 3361, 3362
 7534, 7538, 7542, 7546, 7550, 7554, 7558, 7562, 7566, 7570, 7574, 7578, 7582, 7586, 7590, 7594
 7902, 7903, 7904, 7905, 7906, 7907, 7908, 7909, 7910, 7911, 7912, 7913, 7914, 7915, 7916
*Surface, type=ELEMENT, name=Surf-2
_Surf-2_S4, S4
_Surf-2_S3, S3
*End Assembly
*Amplitude, name=Amp-1
            0.1,           514.8,             0.2,          1029.6,             0.3,          1544.4,             0.4,          2059.2
            0.5,           2574.,             0.6,          3088.8,             0.7,          3603.6,             0.8,          4118.4
            0.9,          4633.2,              1.,           5148.
** 
** MATERIALS
** 
*Material, name=Material-1
*Elastic
 31622.8, 0.2
*Material, name=Material-2
*Elastic
 31622.8, 0.2
** ----------------------------------------------------------------
** 
** STEP: Step-1
** 
*Step, name=Step-1, nlgeom=NO
*Static
0.1, 1., 1e-05, 1.
** 
** BOUNDARY CONDITIONS
** 
** Name: BC-1 Type: Symmetry/Antisymmetry/Encastre
*Boundary
Set-1, ZASYMM
** Name: BC-2 Type: Symmetry/Antisymmetry/Encastre
*Boundary
Set-2, ENCASTRE
** 
** LOADS
** 
** Name: Load-1   Type: Pressure
*Dsload
Surf-2, P, 0.8
** 
** OUTPUT REQUESTS
** 
*Restart, write, frequency=0
** 
** FIELD OUTPUT: F-Output-2
** 
*Output, field
*Node Output
U, 
*Element Output, directions=YES
E, S
** 
** FIELD OUTPUT: F-Output-1
** 
*Output, field, variable=PRESELECT
** 
** HISTORY OUTPUT: H-Output-1
** 
*Output, history, variable=PRESELECT
*End Step
