1

   Abaqus 3DEXPERIENCE R2018x                                  Date 23-Nov-2024   Time 20:45:02
   For use by INDIAN INSTITUTE OF TECHNOLOGY under license from Dassault Systemes or its subsidiary.



                         The Abaqus Software is a product of:

                           Dassault Systemes SIMULIA Corp.
                           1301 Atwood Avenue, Suite 101W
                              Johnston, RI 02919, USA
 


                   The Abaqus Software is available only under license
                   from Dassault Systemes or its subsidiary and may be
                   used or reproduced only in accordance with the terms
                   of such license.
 
                          On machine DESKTOP-M4VAJAV 
                          you are authorized to run
                          Abaqus/Standard until 09-Apr-2025

                          Your site id is: 200000000145531 


 
                    For assistance or any other information you may
                    obtain contact information for your local office
                    from the world wide web at:

                      http://www.3ds.com/products/simulia/locations/

 
                * * * * * * * * * * * * * * * * * * * * * * * * * * * * * * 
                *                                                         * 
                *                   *****************                     * 
                *                   *  N O T I C E  *                     * 
                *                   *****************                     * 
                *                                                         * 
                *                                                         * 
                *               Abaqus 3DEXPERIENCE R2018x                * 
                *                                                         * 
                *          BUILD ID: 2017_11_07-22.51.41 127140           * 
                *                                                         * 
                *                                                         * 
                *  Please make sure you are using                         * 
                *  release 3DEXPERIENCE R2018x manuals                    * 
                *  plus the notes accompanying this release.              * 
                *                                                         * 
                *                                                         * 
                *                                                         * 
                *                                                         * 
                *                                                         * 
                *   This program may not be used for commercial purposes  * 
                *           without payment of a commercial fee.          * 
                *                                                         * 
                * * * * * * * * * * * * * * * * * * * * * * * * * * * * * * 


 



     PROCESSING PART, INSTANCE, AND ASSEMBLY INFORMATION
   *******************************************************


     END PROCESSING PART, INSTANCE, AND ASSEMBLY INFORMATION
   ***********************************************************




     OPTIONS BEING PROCESSED
   ***************************


  *Heading
  *Node
  *Element, type=C3D8R
  *Nset, nset=ASSEMBLY_P70-1_SET-1
  *Elset, elset=ASSEMBLY_P70-1_SET-1
  *Nset, nset=ASSEMBLY_SET-1
  *Nset, nset=ASSEMBLY_SET-2
  *Elset, elset=ASSEMBLY_SET-1
  *Elset, elset=ASSEMBLY_SET-2
  *Elset, elset=ASSEMBLY__SURF-1_S3
  *Elset, elset=ASSEMBLY__SURF-1_S4
  *Elset, elset=ASSEMBLY__SURF-2_S3
  *Elset, elset=ASSEMBLY__SURF-2_S4
  *material, name=MATERIAL-1
  *elastic
  *material, name=MATERIAL-2
  *elastic
  *solidsection, elset=ASSEMBLY_P70-1_SET-1, material=MATERIAL-1
  *solidsection, elset=ASSEMBLY_P70-1_SET-1, material=MATERIAL-1
  *surface, type=ELEMENT, name=ASSEMBLY_SURF-1
  *surface, type=ELEMENT, name=ASSEMBLY_SURF-2
  *surface, type=ELEMENT, name=ASSEMBLY_SURF-1
  *surface, type=ELEMENT, name=ASSEMBLY_SURF-2
  *boundary
  *boundary
  *boundary
  *boundary
  *surface, type=ELEMENT, name=ASSEMBLY_SURF-1
  *surface, type=ELEMENT, name=ASSEMBLY_SURF-2
  *output, field
  *output, field, variable=PRESELECT
  *output, history, variable=PRESELECT
  *elementoutput, directions=YES
  *output, field
  *output, field, variable=PRESELECT
  *output, history, variable=PRESELECT
  *elementoutput, directions=YES
  *output, field
  *output, field, variable=PRESELECT
  *output, history, variable=PRESELECT
  *elementoutput, directions=YES
  
                               E L E M E N T   Q U A L I T Y  C H E C K S        
  
  
 ***NOTES: DISTORTED ISOPARAMETRIC ELEMENTS: ANGLE BETWEEN ISOPARAMETRIC LINES 
           IS LESS THAN 45 DEGREES OR GREATER THAN 135 DEGREES.
  
           TETRAHEDRAL QUALITY MEASURE: VOLUME OF TETRAHEDRON DIVIDED BY THE 
           VOLUME OF EQUILATERAL TETRAHEDRON WITH SAME CIRCUMSPHERE RADIUS; 
           0 FOR DEGENERATE TETRAHEDRON AND 1 FOR EQUILATERIAL TETRAHEDRON. IT 
           IS RECOMMENDED THAT THE TETRAHEDRAL QUALITY MEASURE BE GREATER THAN 
           0.02, THE MIN INTERIOR (DIHEDRAL) ANGLE BE GREATER THAN 10 DEGREES, 
           AND THE MAX INTERIOR (DIHEDRAL) ANGLE BE LESS THAN 160 DEGREES. 
  
           MODIFIED TETRAHEDRAL QUALITY MEASURE: ANGLES BETWEEN THE TWO LINE 
           SEGMENTS ON EACH EDGE; THE EDGES OF MODIFIED TETRAHEDRAL SHOULD BE 
           AS STRAIGHT AS POSSIBLE. IT IS RECOMMENDED THAT THE ANGLE BETWEEN 
           THE TWO LINE SEGMENTS ON EACH EDGE IS BETWEEN 160 AND 180 DEGREES. 
  
           TRIANGULAR QUALITY MEASURE: AREA OF TRIANGLE DIVIDED BY THE AREA OF 
           EQUILATERAL TRIANGLE WITH SAME CIRCUMCIRCLE RADIUS; 0 FOR DEGENERATE 
           TRIANGLE AND 1 FOR EQUILATERAL TRIANGLE. IT IS RECOMMENDED THAT THE
           TRIANGULAR QUALITY MEASURE BE GREATER THAN 0.01, THE MIN INTERIOR 
           ANGLE BE GREATER THAN 10 DEGREES, AND THE MAX INTERIOR ANGLE BE LESS 
           THAN 160 DEGREES. 
  
           NODAL ADJUSTMENTS ARISING FROM CONTACT INTERACTIONS AND/OR TIE 
           CONSTRAINTS CAN CAUSE SEVERE ELEMENT DISTORTION. IT MAY BE NECESSARY 
           TO REMESH IN ORDER TO REDUCE THE AMOUNT OF ADJUSTMENT. 

 ***WARNING: 155 elements are distorted. Either the isoparametric angles are 
             out of the suggested limits or the triangular or tetrahedral 
             quality measure is bad. The elements have been identified in 
             element set WarnElemDistorted.
  
 --------------------------------------------------------------------------------
 Distorted isoparametric elements
  
     Element      Min/max angle   Adjusted nodes 
 --------------- ---------------- -------------- 
      P70-1.2654          43.1183       NO       
      P70-1.2658          42.2734       NO       
      P70-1.2662          41.5007       NO       
      P70-1.2666          40.9699       NO       
      P70-1.2670          40.6737       NO       
      P70-1.2674          40.5328       NO       
      P70-1.2678          40.4733       NO       
      P70-1.2682          40.4503       NO       
      P70-1.2686          40.4418       NO       
      P70-1.2690          40.4389       NO       
      P70-1.2694            40.44       NO       
      P70-1.2698          40.4521       NO       
      P70-1.2702          40.4869       NO       
      P70-1.2706          40.5357       NO       
      P70-1.2710          40.0484       NO       
      P70-1.2713          44.4512       NO       
      P70-1.2714          35.2151       NO       
      P70-1.2717          43.7922       NO       
      P70-1.2718          34.5301       NO       
      P70-1.2721          43.0719       NO       
      P70-1.2722          33.9423       NO       
      P70-1.2725          42.5635       NO       
      P70-1.2726          33.5396       NO       
      P70-1.2729          42.2894       NO       
      P70-1.2730          33.3115       NO       
      P70-1.2733          42.1686       NO       
      P70-1.2734          33.2008       NO       
      P70-1.2737          42.1224       NO       
      P70-1.2738          33.1531       NO       
      P70-1.2741          42.1062       NO       
      P70-1.2742          33.1344       NO       
      P70-1.2745          42.1006       NO       
      P70-1.2746          33.1274       NO       
      P70-1.2749          42.0984       NO       
      P70-1.2750          33.1247       NO       
      P70-1.2753          42.0982       NO       
      P70-1.2754          33.1249       NO       
      P70-1.2757          42.1053       NO       
      P70-1.2758          33.1317       NO       
      P70-1.2761          42.1358       NO       
      P70-1.2762          33.1502       NO       
      P70-1.2765          42.2233       NO       
      P70-1.2766          33.1665       NO       
      P70-1.2769          41.8989       NO       
      P70-1.2770          32.7485       NO       
      P70-1.3283          39.1918       NO       
      P70-1.3284          38.7354       NO       
      P70-1.3285          38.5836       NO       
      P70-1.3286          38.5268       NO       
      P70-1.3287          38.5053       NO       
      P70-1.3288          38.4975       NO       
      P70-1.3289          38.4948       NO       
      P70-1.3290           38.494       NO       
      P70-1.3291          38.4938       NO       
      P70-1.3292          38.4941       NO       
      P70-1.3293          38.4961       NO       
      P70-1.3294          38.5165       NO       
      P70-1.3295            38.67       NO       
      P70-1.3296          39.2429       NO       
      P70-1.3297          40.2812       NO       
      P70-1.3298          40.7163       NO       
      P70-1.3347          32.0767       NO       
      P70-1.3348          31.7475       NO       
      P70-1.3349          31.6396       NO       
      P70-1.3350          31.5977       NO       
      P70-1.3351          31.5808       NO       
      P70-1.3352          31.5745       NO       
      P70-1.3353          31.5723       NO       
      P70-1.3354          31.5715       NO       
      P70-1.3355          31.5714       NO       
      P70-1.3356          31.5717       NO       
      P70-1.3357          31.5735       NO       
      P70-1.3358          31.5913       NO       
      P70-1.3359          31.7249       NO       
      P70-1.3360          32.1941       NO       
      P70-1.3361          33.0038       NO       
      P70-1.3362          33.3666       NO       
      P70-1.3363          41.4809       NO       
      P70-1.3364          41.4476       NO       
      P70-1.3365          41.4272       NO       
      P70-1.3366          41.3965       NO       
      P70-1.3367          41.3758       NO       
      P70-1.3368          41.3665       NO       
      P70-1.3369          41.3632       NO       
      P70-1.3370          41.3622       NO       
      P70-1.3371          41.3625       NO       
      P70-1.3372          41.3649       NO       
      P70-1.3373          41.3769       NO       
      P70-1.3374           41.453       NO       
      P70-1.3375          41.7699       NO       
      P70-1.3376          42.4989       NO       
      P70-1.3377          43.4662       NO       
      P70-1.3378          43.9053       NO       
      P70-1.7534          24.9811       NO       
      P70-1.7535          35.6324       NO       
      P70-1.7538          24.5765       NO       
      P70-1.7539          34.8986       NO       
      P70-1.7542          24.0989       NO       
      P70-1.7543          34.0586       NO       
      P70-1.7546           23.888       NO       
      P70-1.7547           33.593       NO       
      P70-1.7550          23.8493       NO       
      P70-1.7551          33.4517       NO       
      P70-1.7554          23.8462       NO       
      P70-1.7555          33.4295       NO       
      P70-1.7558          23.8459       NO       
      P70-1.7559          33.4259       NO       
      P70-1.7562          23.8458       NO       
      P70-1.7563          33.4251       NO       
      P70-1.7566          23.8459       NO       
      P70-1.7567          33.4251       NO       
      P70-1.7570          23.8462       NO       
      P70-1.7571          33.4256       NO       
      P70-1.7574           23.847       NO       
      P70-1.7575          33.4274       NO       
      P70-1.7578          23.8498       NO       
      P70-1.7579          33.4328       NO       
      P70-1.7582          23.8573       NO       
      P70-1.7583          33.4471       NO       
      P70-1.7586          23.8758       NO       
      P70-1.7587          33.4746       NO       
      P70-1.7590          23.9154       NO       
      P70-1.7591          33.5021       NO       
      P70-1.7594          24.0001       NO       
      P70-1.7595          33.4944       NO       
      P70-1.7902          24.3419       NO       
      P70-1.7903          24.6395       NO       
      P70-1.7904          24.6517       NO       
      P70-1.7905           24.649       NO       
      P70-1.7906          24.6487       NO       
      P70-1.7907          24.6497       NO       
      P70-1.7908          24.6509       NO       
      P70-1.7909          24.6539       NO       
      P70-1.7910          24.6625       NO       
      P70-1.7911          24.6853       NO       
      P70-1.7912          24.7415       NO       
      P70-1.7913          24.8649       NO       
      P70-1.7914          25.0999       NO       
      P70-1.7915          25.4787       NO       
      P70-1.7916              26.       NO       
      P70-1.7917          33.9057       NO       
      P70-1.7918          34.3226       NO       
      P70-1.7919           34.308       NO       
      P70-1.7920          34.3024       NO       
      P70-1.7921          34.3037       NO       
      P70-1.7922          34.3055       NO       
      P70-1.7923           34.307       NO       
      P70-1.7924          34.3103       NO       
      P70-1.7925          34.3205       NO       
      P70-1.7926          34.3505       NO       
      P70-1.7927           34.432       NO       
      P70-1.7928           34.628       NO       
      P70-1.7929           35.025       NO       
      P70-1.7930          35.6725       NO       
      P70-1.7931           36.509       NO       
  
  
  *amplitude, name=AMP-1
  *Step, name=Step-1, nlgeom=NO
  *output, field
  *output, field, variable=PRESELECT
  *output, history, variable=PRESELECT
  *Step, name=Step-1, nlgeom=NO
  *Step, name=Step-1, nlgeom=NO
  *static
  *boundary
  *boundary
  *dsload
  *output, field
  *nodeoutput
  *elementoutput, directions=YES
  *output, field, variable=PRESELECT
  *output, history, variable=PRESELECT
  *endstep
  *Step, name=Step-1, nlgeom=NO
  *static
  *boundary
  *boundary
  *endstep

     - (RAMP) OR (STEP) - INDICATE USE OF DEFAULT AMPLITUDES ASSOCIATED WITH THE STEP



                            P R O B L E M   S I Z E


          NUMBER OF ELEMENTS IS                                  8246
          NUMBER OF NODES IS                                     9856
          NUMBER OF NODES DEFINED BY THE USER                    9856
          TOTAL NUMBER OF VARIABLES IN THE MODEL                29568
          (DEGREES OF FREEDOM PLUS MAX NO. OF ANY LAGRANGE MULTIPLIER
           VARIABLES. INCLUDE *PRINT,SOLVE=YES TO GET THE ACTUAL NUMBER.)



                              END OF USER INPUT PROCESSING



     JOB TIME SUMMARY
       USER TIME (SEC)      =   1.9000    
       SYSTEM TIME (SEC)    =  0.60000    
       TOTAL CPU TIME (SEC) =   2.5000    
       WALLCLOCK TIME (SEC) =          3
1

   Abaqus 3DEXPERIENCE R2018x                                  Date 23-Nov-2024   Time 20:45:10
   For use by INDIAN INSTITUTE OF TECHNOLOGY under license from Dassault Systemes or its subsidiary.

                                                                                               STEP    1  INCREMENT    1
                                                                                          TIME COMPLETED IN THIS STEP   0.00    


                        S T E P       1     S T A T I C   A N A L Y S I S


                                                                                          

     AUTOMATIC TIME CONTROL WITH -
          A SUGGESTED INITIAL TIME INCREMENT OF                0.100    
          AND A TOTAL TIME PERIOD OF                            1.00    
          THE MINIMUM TIME INCREMENT ALLOWED IS                1.000E-05
          THE MAXIMUM TIME INCREMENT ALLOWED IS                 1.00    

     LINEAR EQUATION SOLVER TYPE         DIRECT SPARSE
  
                   M E M O R Y   E S T I M A T E
  
 PROCESS      FLOATING PT       MINIMUM MEMORY        MEMORY TO
              OPERATIONS           REQUIRED          MINIMIZE I/O
             PER ITERATION           (MB)               (MB)
  
     1          9.61E+09               34                184
  
 NOTE:
      (1) SINCE ABAQUS DOES NOT PRE-ALLOCATE MEMORY AND ONLY ALLOCATES MEMORY AS NEEDED DURING THE ANALYSIS,
          THE MEMORY REQUIREMENT PRINTED HERE CAN ONLY BE VIEWED AS A GENERAL GUIDELINE BASED ON THE BEST
          KNOWLEDGE AVAILABLE AT THE BEGINNING OF A STEP BEFORE THE SOLUTION PROCESS HAS BEGUN.
      (2) THE ESTIMATE IS NORMALLY UPDATED AT THE BEGINNING OF EVERY STEP. IT IS THE MAXIMUM VALUE OF THE
          ESTIMATE FROM THE CURRENT STEP TO THE LAST STEP OF THE ANALYSIS, WITH UNSYMMETRIC SOLUTION TAKEN
          INTO ACCOUNT IF APPLICABLE. 
      (3) SINCE THE ESTIMATE IS BASED ON THE ACTIVE DEGREES OF FREEDOM IN THE FIRST ITERATION OF THE 
          CURRENT STEP, THE MEMORY ESTIMATE MIGHT BE SIGNIFICANTLY DIFFERENT THAN ACTUAL USAGE FOR 
          PROBLEMS WITH SUBSTANTIAL CHANGES IN ACTIVE DEGREES OF FREEDOM BETWEEN STEPS (OR EVEN WITHIN
          THE SAME STEP). EXAMPLES ARE: PROBLEMS WITH SIGNIFICANT CONTACT CHANGES, PROBLEMS WITH MODEL
          CHANGE, PROBLEMS WITH BOTH STATIC STEP AND STEADY STATE DYNAMIC PROCEDURES WHERE ACOUSTIC 
          ELEMENTS WILL ONLY BE ACTIVATED IN THE STEADY STATE DYNAMIC STEPS.
      (4) FOR MULTI-PROCESS EXECUTION, THE ESTIMATED VALUE OF FLOATING POINT OPERATIONS FOR EACH PROCESS
          IS BASED ON AN INITIAL SCHEDULING OF OPERATIONS AND MIGHT NOT REFLECT THE ACTUAL FLOATING 
          POINT OPERATIONS COMPLETED ON EACH PROCESS. OPERATIONS ARE DYNAMICALLY BALANCED DURING EXECUTION, 
          SO THE ACTUAL BALANCE OF OPERATIONS BETWEEN PROCESSES IS EXPECTED TO BE BETTER THAN THE ESTIMATE
          PRINTED HERE.
      (5) THE UPPER LIMIT OF MEMORY THAT CAN BE ALLOCATED BY ABAQUS WILL IN GENERAL DEPEND ON THE VALUE OF
          THE "MEMORY" PARAMETER AND THE AMOUNT OF PHYSICAL MEMORY AVAILABLE ON THE MACHINE. PLEASE SEE
          THE "ABAQUS ANALYSIS USER'S MANUAL" FOR MORE DETAILS. THE ACTUAL USAGE OF MEMORY AND OF DISK
          SPACE FOR SCRATCH DATA WILL DEPEND ON THIS UPPER LIMIT AS WELL AS THE MEMORY REQUIRED TO MINIMIZE
          I/O. IF THE MEMORY UPPER LIMIT IS GREATER THAN THE MEMORY REQUIRED TO MINIMIZE I/O, THEN THE ACTUAL
          MEMORY USAGE WILL BE CLOSE TO THE ESTIMATED "MEMORY TO MINIMIZE I/O" VALUE, AND THE SCRATCH DISK
          USAGE WILL BE CLOSE-TO-ZERO; OTHERWISE, THE ACTUAL MEMORY USED WILL BE CLOSE TO THE PREVIOUSLY
          MENTIONED MEMORY LIMIT, AND THE SCRATCH DISK USAGE WILL BE ROUGHLY PROPORTIONAL TO THE DIFFERENCE
          BETWEEN THE ESTIMATED "MEMORY TO MINIMIZE I/O" AND THE MEMORY UPPER LIMIT. HOWEVER ACCURATE
          ESTIMATE OF THE SCRATCH DISK SPACE IS NOT POSSIBLE.
      (6) USING "*RESTART, WRITE" CAN GENERATE A LARGE AMOUNT OF DATA WRITTEN IN THE WORK DIRECTORY.


          THE ANALYSIS HAS BEEN COMPLETED



                              ANALYSIS COMPLETE
                              WITH      1 WARNING MESSAGES ON THE DAT FILE



     JOB TIME SUMMARY
       USER TIME (SEC)      =   16.200    
       SYSTEM TIME (SEC)    =  0.30000    
       TOTAL CPU TIME (SEC) =   16.500    
       WALLCLOCK TIME (SEC) =         17
