*Heading
** Job name: 90S Model name: 90
** Generated by: Abaqus/CAE 2018
*Preprint, echo=NO, model=NO, history=NO, contact=NO
**
** PARTS
**
*Part, name=P90
*End Part
**  
**
** ASSEMBLY
**
*Assembly, name=Assembly
**  
*Instance, name=P90-1, part=P90
*Node
      1,         250.,           0.,    63.636364
      2,         250.,           0.,           0.
      3,         250.,   129.032257,           0.
      4,         250.,   129.032257,    63.636364
      5,   146.551727,           0.,           0.
      6,   146.551727,   129.032257,           0.
      7,   138.576935,   129.032242,   81.8727493
      8,     139.1185,           0.,   80.9228745
      9,         250.,         250.,           0.
     10,         250.,         250.,    63.636364
     11,   146.551727,         250.,           0.
     12,   139.036087,         250.,   80.7070694
     13,         250.,         250.,         100.
     14,         250.,   129.032257,         100.
     15,    166.92308,         250.,         100.
     16,    166.92308,   129.032257,         100.
     17,         250.,           0.,         100.
     18,    166.92308,           0.,         100.
     19,           0.,           0.,           0.
     20,           0.,   129.032257,           0.
** ... 10028 like lines cut
*Element, type=C3D8R
   1,   129,  1187,  4394,   857,     1,    34,   677,    75
   2,  1187,  1188,  4395,  4394,    34,    35,   678,   677
   3,  1188,  1189,  4396,  4395,    35,    36,   679,   678
   4,  1189,  1190,  4397,  4396,    36,    37,   680,   679
   5,  1190,  1191,  4398,  4397,    37,    38,   681,   680
   6,  1191,  1192,  4399,  4398,    38,    39,   682,   681
   7,  1192,   151,  1022,  4399,    39,     2,    40,   682
   8,   857,  4394,  4400,   858,    75,   677,   683,    74
   9,  4394,  4395,  4401,  4400,   677,   678,   684,   683
  10,  4395,  4396,  4402,  4401,   678,   679,   685,   684
  11,  4396,  4397,  4403,  4402,   679,   680,   686,   685
  12,  4397,  4398,  4404,  4403,   680,   681,   687,   686
  13,  4398,  4399,  4405,  4404,   681,   682,   688,   687
  14,  4399,  1022,  1023,  4405,   682,    40,    41,   688
  15,   858,  4400,  4406,   859,    74,   683,   689,    73
  16,  4400,  4401,  4407,  4406,   683,   684,   690,   689
  17,  4401,  4402,  4408,  4407,   684,   685,   691,   690
  18,  4402,  4403,  4409,  4408,   685,   686,   692,   691
  19,  4403,  4404,  4410,  4409,   686,   687,   693,   692
  20,  4404,  4405,  4411,  4410,   687,   688,   694,   693
** ... 8412 like lines cut
*Nset, nset=Set-1, generate
     1,  10048,      1
*Elset, elset=Set-1, generate
    1,  8432,     1
** Section: Section-1
*Solid Section, elset=Set-1, material=Material-1
,
*End Instance
**  
*Nset, nset=Set-1, instance=P90-1
    1,    2,    3,    4,    5,    8,    9,   10,   11,   12,   13,   14,   15,   17,   18,   19
   20,   21,   22,   23,   24,   25,   26,   29,   30,   31,   32,   33,   34,   35,   36,   37
   38,   39,   40,   41,   42,   43,   44,   45,   46,   47,   48,   49,   50,   51,   52,   53
   54,   55,   56,   57,   58,   59,   60,   61,   62,   63,   64,   65,   66,   67,   68,   69
   70,   71,   72,   73,   74,   75,   76,   77,   78,   79,   80,   81,  129,  130,  131,  132
  133,  134,  135,  136,  137,  138,  139,  151,  152,  153,  154,  155,  156,  157,  158,  159
  160,  161,  162,  163,  164,  165,  166,  167,  168,  169,  170,  171,  172,  173,  174,  175
  176,  177,  178,  179,  180,  181,  182,  183,  184,  185,  186,  187,  188,  189,  190,  191
  192,  193,  194,  195,  210,  211,  212,  213,  214,  215,  230,  231,  232,  233,  234,  235
  236,  237,  238,  239,  240,  241,  242,  243,  244,  245,  246,  247,  248,  249,  250,  251
  252,  253,  254,  255,  256,  257,  258,  259,  260,  261,  262,  263,  264,  265,  266,  267
  268,  269,  270,  271,  272,  273,  274,  303,  304,  305,  306,  307,  308,  309,  310,  311
  312,  313,  314,  315,  316,  317,  318,  319,  320,  321,  322,  323,  324,  325,  326,  327
  328,  329,  330,  331,  347,  348,  349,  350,  351,  352,  353,  354,  355,  356,  357,  358
  359,  360,  361,  362,  363,  364,  365,  366,  367,  368,  369,  370,  371,  372,  373,  374
  375,  376,  377,  378,  379,  380,  381,  382,  383,  384,  385,  386,  387,  388,  389,  390
  391,  408,  409,  410,  411,  412,  413,  414,  415,  416,  417,  418,  419,  420,  421,  422
  423,  424,  425,  426,  427,  428,  429,  430,  431,  432,  433,  434,  435,  436,  437,  438
  455,  456,  457,  458,  459,  460,  461,  462,  463,  464,  465,  466,  467,  468,  469,  470
  471,  472,  473,  474,  475,  476,  477,  478,  479,  480,  481,  482,  483,  484,  485,  486
** ... 59 like lines cut
*Elset, elset=Set-1, instance=P90-1
    1,    2,    3,    4,    5,    6,    7,    8,    9,   10,   11,   12,   13,   14,   15,   16
   17,   18,   19,   20,   21,   22,   23,   24,   25,   26,   27,   28,   29,   30,   31,   32
   33,   34,   35,   36,   37,   38,   39,   40,   41,   42,   43,   44,   45,   46,   47,   48
   49,   50,   51,   52,   53,   54,   55,   56,   57,   58,   59,   60,   61,   62,   63,   64
   65,   66,   67,   68,   69,   70,   71,   72,   73,   74,   75,   76,   77,   78,   79,   80
   81,   82,   83,   84,   85,   86,   87,   88,   89,   90,   91,   92,   93,   94,   95,   96
   97,   98,   99,  100,  101,  102,  103,  104,  105,  106,  107,  108,  109,  110,  111,  112
  113,  114,  115,  116,  117,  118,  119,  225,  226,  227,  228,  229,  230,  231,  337,  338
  339,  340,  341,  342,  343,  449,  450,  451,  452,  453,  454,  455,  561,  562,  563,  564
  565,  566,  567,  673,  674,  675,  676,  677,  678,  679,  785,  786,  787,  788,  789,  790
  791,  897,  898,  899,  900,  901,  902,  903, 1009, 1010, 1011, 1012, 1013, 1014, 1015, 1121
 1122, 1123, 1124, 1125, 1126, 1127, 1233, 1234, 1235, 1236, 1237, 1238, 1239, 1345, 1346, 1347
 1348, 1349, 1350, 1351, 1352, 1353, 1354, 1355, 1356, 1357, 1358, 1359, 1360, 1361, 1362, 1363
 1364, 1365, 1366, 1367, 1368, 1369, 1370, 1371, 1372, 1373, 1374, 1375, 1376, 1377, 1378, 1379
 1380, 1381, 1382, 1383, 1384, 1385, 1386, 1387, 1388, 1389, 1390, 1391, 1392, 1393, 1394, 1395
 1396, 1397, 1398, 1399, 1400, 1401, 1402, 1403, 1404, 1405, 1406, 1407, 1408, 1409, 1410, 1411
 1412, 1413, 1414, 1415, 1416, 1417, 1418, 1419, 1420, 1421, 1422, 1423, 1424, 1425, 1426, 1427
 1428, 1429, 1430, 1431, 1432, 1433, 1434, 1435, 1436, 1437, 1438, 1439, 1440, 1441, 1442, 1443
 1444, 1445, 1446, 1447, 1448, 1449, 1464, 1479, 1494, 1509, 1524, 1539, 1554, 1569, 1584, 1599
 1614, 1629, 1644, 1659, 1674, 1689, 1704, 1719, 1734, 1749, 1764, 1779, 1794, 1809, 1824, 1839
** ... 49 like lines cut
*Nset, nset=Set-2, instance=P90-1
    2,    3,    5,    6,    9,   11,   19,   20,   23,   40,   41,   42,   43,   44,   45,   46
   47,   48,   49,   50,   51,   52,   53,   54,   82,   83,   84,   85,   86,   87,   88,   89
   90,   91,   92,   93,   94,   95,   96,  140,  141,  142,  143,  144,  145,  146,  147,  148
  149,  150,  151,  152,  153,  154,  155,  156,  157,  158,  159,  160,  161,  162,  163,  164
  165,  166,  167,  168,  169,  170,  171,  172,  173,  174,  175,  196,  197,  198,  199,  200
  201,  202,  203,  204,  205,  206,  207,  208,  209,  241,  242,  243,  244,  245,  246,  247
  248,  249,  250,  251,  361,  362,  363,  364,  365,  366,  367,  368,  369,  370,  371,  372
  373,  374,  375,  376,  377,  378,  379,  380,  381,  382,  383,  384,  385,  386,  387,  388
  389,  390,  391,  392,  393,  394,  395,  396,  397,  398,  399,  400,  401,  402,  403,  404
  405,  406,  407,  467,  468,  469,  470,  471,  472,  473,  474,  475,  476,  477,  478,  479
  480,  481,  482,  483,  484,  485,  486,  487,  488,  489,  490,  491,  492,  493,  494,  495
  496, 1022, 1023, 1024, 1025, 1026, 1027, 1028, 1029, 1030, 1031, 1032, 1033, 1034, 1035, 1036
 1037, 1038, 1039, 1040, 1041, 1042, 1043, 1044, 1045, 1046, 1047, 1048, 1049, 1050, 1051, 1052
 1053, 1054, 1055, 1056, 1057, 1058, 1059, 1060, 1061, 1062, 1063, 1064, 1065, 1066, 1067, 1068
 1069, 1070, 1071, 1072, 1073, 1074, 1075, 1076, 1077, 1078, 1079, 1080, 1081, 1082, 1083, 1084
 1085, 1086, 1087, 1088, 1089, 1090, 1091, 1092, 1093, 1094, 1095, 1096, 1097, 1098, 1099, 1100
 1101, 1102, 1103, 1104, 1105, 1106, 1107, 1108, 1109, 1110, 1111, 1112, 1113, 1114, 1115, 1116
 1117, 1118, 1119, 1120, 1121, 1122, 1123, 1124, 1125, 1126, 1127, 1128, 1129, 1130, 1131, 1132
 1133, 1134, 1135, 1136, 1137, 1138, 1139, 1140, 1141, 1142, 1143, 1144, 1145, 1146, 1147, 1148
 1149, 1150, 1151, 1152, 1153, 1154, 1155, 1156, 1157, 1158, 1159, 1160, 1161, 1162, 1163, 1164
** ... 40 like lines cut
*Elset, elset=Set-2, instance=P90-1
    7,   14,   21,   28,   35,   42,   49,   56,   63,   70,   77,   84,   91,   98,  105,  112
  119,  126,  133,  140,  147,  154,  161,  168,  175,  182,  189,  196,  203,  210,  217,  224
  231,  238,  245,  252,  259,  266,  273,  280,  287,  294,  301,  308,  315,  322,  329,  336
  343,  350,  357,  364,  371,  378,  385,  392,  399,  406,  413,  420,  427,  434,  441,  448
  455,  462,  469,  476,  483,  490,  497,  504,  511,  518,  525,  532,  539,  546,  553,  560
  567,  574,  581,  588,  595,  602,  609,  616,  623,  630,  637,  644,  651,  658,  665,  672
  679,  686,  693,  700,  707,  714,  721,  728,  735,  742,  749,  756,  763,  770,  777,  784
  791,  798,  805,  812,  819,  826,  833,  840,  847,  854,  861,  868,  875,  882,  889,  896
  903,  910,  917,  924,  931,  938,  945,  952,  959,  966,  973,  980,  987,  994, 1001, 1008
 1015, 1022, 1029, 1036, 1043, 1050, 1057, 1064, 1071, 1078, 1085, 1092, 1099, 1106, 1113, 1120
 1127, 1134, 1141, 1148, 1155, 1162, 1169, 1176, 1183, 1190, 1197, 1204, 1211, 1218, 1225, 1232
 1239, 1246, 1253, 1260, 1267, 1274, 1281, 1288, 1295, 1302, 1309, 1316, 1323, 1330, 1337, 1344
 1345, 1346, 1347, 1348, 1349, 1350, 1351, 1352, 1353, 1354, 1355, 1356, 1357, 1358, 1359, 1450
 1451, 1452, 1453, 1454, 1455, 1456, 1457, 1458, 1459, 1460, 1461, 1462, 1463, 1464, 1555, 1556
 1557, 1558, 1559, 1560, 1561, 1562, 1563, 1564, 1565, 1566, 1567, 1568, 1569, 1660, 1661, 1662
 1663, 1664, 1665, 1666, 1667, 1668, 1669, 1670, 1671, 1672, 1673, 1674, 1765, 1766, 1767, 1768
 1769, 1770, 1771, 1772, 1773, 1774, 1775, 1776, 1777, 1778, 1779, 1870, 1871, 1872, 1873, 1874
 1875, 1876, 1877, 1878, 1879, 1880, 1881, 1882, 1883, 1884, 1975, 1976, 1977, 1978, 1979, 1980
 1981, 1982, 1983, 1984, 1985, 1986, 1987, 1988, 1989, 2080, 2081, 2082, 2083, 2084, 2085, 2086
 2087, 2088, 2089, 2090, 2091, 2092, 2093, 2094, 2185, 2186, 2187, 2188, 2189, 2190, 2191, 2192
** ... 37 like lines cut
*Elset, elset=_Surf-1_S4, internal, instance=P90-1, generate
 2608,  3324,     4
*Elset, elset=_Surf-1_S3, internal, instance=P90-1
 3325, 3326, 3327, 3328, 3329, 3330, 3331, 3332, 3333, 3334, 3335, 3336, 3337, 3338, 3339, 3340
 3389, 3390, 3391, 3392, 3393, 3394, 3395, 3396, 3397, 3398, 3399, 3400, 3401, 3402, 3403, 3404
 3453, 3454, 3455, 3456, 3457, 3458, 3459, 3460, 3461, 3462, 3463, 3464, 3465, 3466, 3467, 3468
 3517, 3518, 3519, 3520, 3521, 3522, 3523, 3524, 3525, 3526, 3527, 3528, 3529, 3530, 3531, 3532
 3581, 3582, 3583, 3584, 3585, 3586, 3587, 3588, 3589, 3590, 3591, 3592, 3593, 3594, 3595, 3596
 3645, 3646, 3647, 3648, 3649, 3650, 3651, 3652, 3653, 3654, 3655, 3656, 3657, 3658, 3659, 3660
 3709, 3710, 3711, 3712, 3713, 3714, 3715, 3716, 3717, 3718, 3719, 3720, 3721, 3722, 3723, 3724
 3773, 3774, 3775, 3776, 3777, 3778, 3779, 3780, 3781, 3782, 3783, 3784, 3785, 3786, 3787, 3788
 3837, 3838, 3839, 3840, 3841, 3842, 3843, 3844, 3845, 3846, 3847, 3848, 3849, 3850, 3851, 3852
 3901, 3902, 3903, 3904, 3905, 3906, 3907, 3908, 3909, 3910, 3911, 3912, 3913, 3914, 3915, 3916
 3965, 3966, 3967, 3968, 3969, 3970, 3971, 3972, 3973, 3974, 3975, 3976, 3977, 3978, 3979, 3980
 4029, 4030, 4031, 4032, 4033, 4034, 4035, 4036, 4037, 4038, 4039, 4040, 4041, 4042, 4043, 4044
 7782, 7786, 7790, 7794, 7798, 7802, 7806, 7810, 7814, 7818, 7822, 7826, 7830, 7834, 7838, 7842
 8118, 8119, 8120, 8121, 8122, 8123, 8124, 8125, 8126, 8127, 8128, 8129, 8130, 8131, 8132
*Surface, type=ELEMENT, name=Surf-1
_Surf-1_S4, S4
_Surf-1_S3, S3
*Elset, elset=_Surf-2_S4, internal, instance=P90-1, generate
 2608,  3324,     4
*Elset, elset=_Surf-2_S3, internal, instance=P90-1
 3325, 3326, 3327, 3328, 3329, 3330, 3331, 3332, 3333, 3334, 3335, 3336, 3337, 3338, 3339, 3340
 3389, 3390, 3391, 3392, 3393, 3394, 3395, 3396, 3397, 3398, 3399, 3400, 3401, 3402, 3403, 3404
 3453, 3454, 3455, 3456, 3457, 3458, 3459, 3460, 3461, 3462, 3463, 3464, 3465, 3466, 3467, 3468
 3517, 3518, 3519, 3520, 3521, 3522, 3523, 3524, 3525, 3526, 3527, 3528, 3529, 3530, 3531, 3532
 3581, 3582, 3583, 3584, 3585, 3586, 3587, 3588, 3589, 3590, 3591, 3592, 3593, 3594, 3595, 3596
 3645, 3646, 3647, 3648, 3649, 3650, 3651, 3652, 3653, 3654, 3655, 3656, 3657, 3658, 3659, 3660
 3709, 3710, 3711, 3712, 3713, 3714, 3715, 3716, 3717, 3718, 3719, 3720, 3721, 3722, 3723, 3724
 3773, 3774, 3775, 3776, 3777, 3778, 3779, 3780, 3781, 3782, 3783, 3784, 3785, 3786, 3787, 3788
 3837, 3838, 3839, 3840, 3841, 3842, 3843, 3844, 3845, 3846, 3847, 3848, 3849, 3850, 3851, 3852
 3901, 3902, 3903, 3904, 3905, 3906, 3907, 3908, 3909, 3910, 3911, 3912, 3913, 3914, 3915, 3916
 3965, 3966, 3967, 3968, 3969, 3970, 3971, 3972, 3973, 3974, 3975, 3976, 3977, 3978, 3979, 3980
 4029, 4030, 4031, 4032, 4033, 4034, 4035, 4036, 4037, 4038, 4039, 4040, 4041, 4042, 4043, 4044
 7782, 7786, 7790, 7794, 7798, 7802, 7806, 7810, 7814, 7818, 7822, 7826, 7830, 7834, 7838, 7842
 8118, 8119, 8120, 8121, 8122, 8123, 8124, 8125, 8126, 8127, 8128, 8129, 8130, 8131, 8132
*Surface, type=ELEMENT, name=Surf-2
_Surf-2_S4, S4
_Surf-2_S3, S3
*End Assembly
*Amplitude, name=Amp-1
            0.1,           514.8,             0.2,          1029.6,             0.3,          1544.4,             0.4,          2059.2
            0.5,           2574.,             0.6,          3088.8,             0.7,          3603.6,             0.8,          4118.4
            0.9,          4633.2,              1.,           5148.
** 
** MATERIALS
** 
*Material, name=Material-1
*Elastic
 31622.8, 0.2
** ----------------------------------------------------------------
** 
** STEP: Step-1
** 
*Step, name=Step-1, nlgeom=NO
*Static
0.1, 1., 1e-05, 1.
** 
** BOUNDARY CONDITIONS
** 
** Name: BC-1 Type: Symmetry/Antisymmetry/Encastre
*Boundary
Set-1, ZASYMM
** Name: BC-2 Type: Symmetry/Antisymmetry/Encastre
*Boundary
Set-2, ENCASTRE
** 
** LOADS
** 
** Name: Load-1   Type: Pressure
*Dsload
Surf-2, P, 0.8
** 
** OUTPUT REQUESTS
** 
*Restart, write, frequency=0
** 
** FIELD OUTPUT: F-Output-2
** 
*Output, field
*Node Output
U, 
*Element Output, directions=YES
E, S
** 
** FIELD OUTPUT: F-Output-1
** 
*Output, field, variable=PRESELECT
** 
** HISTORY OUTPUT: H-Output-1
** 
*Output, history, variable=PRESELECT
*End Step
