*Heading
** Job name: Job-7 Model name: MODEL 2
** Generated by: Abaqus/CAE 2018
*Preprint, echo=NO, model=NO, history=NO, contact=NO
**
** PARTS
**
*Part, name=Part-1
*End Part
**  
*Part, name=Part-2
*End Part
**  
**
** ASSEMBLY
**
*Assembly, name=Assembly
**  
*Instance, name=Part-1-1, part=Part-1
         8.8,         3.75,           0.
*Node
      1,           0.,           0.,           5.
      2,           0.,         0.75,           5.
      3,           3.,         0.75,           5.
      4,           3.,           0.,           5.
      5,           0.,         0.75,           8.
      6,           3.,         0.75,           8.
      7,           3.,           0.,           8.
      8,           0.,           0.,           8.
      9,           0.,           0.,           3.
     10,           0.,         0.75,           3.
     11,           3.,         0.75,           3.
     12,           3.,           0.,           3.
     13,           8.,         0.75,           5.
     14,           8.,           0.,           5.
     15,           8.,           0.,           3.
     16,           8.,         0.75,           3.
     17,           5.,           0.,           5.
     18,           5.,           0.,           3.
     19,           5.,         0.75,           3.
     20,           5.,         0.75,           5.
** ... 2972 like lines cut
*Element, type=C3D8R
  1,   94,  647, 1913,  485,    1,   33,  449,   54
  2,  647,  648, 1914, 1913,   33,   34,  450,  449
  3,  648,  104,  566, 1914,   34,    2,   35,  450
  4,  485, 1913, 1915,  486,   54,  449,  451,   53
  5, 1913, 1914, 1916, 1915,  449,  450,  452,  451
  6, 1914,  566,  567, 1916,  450,   35,   36,  452
  7,  486, 1915, 1917,  487,   53,  451,  453,   52
  8, 1915, 1916, 1918, 1917,  451,  452,  454,  453
  9, 1916,  567,  568, 1918,  452,   36,   37,  454
 10,  487, 1917, 1919,  488,   52,  453,  455,   51
 11, 1917, 1918, 1920, 1919,  453,  454,  456,  455
 12, 1918,  568,  569, 1920,  454,   37,   38,  456
 13,  488, 1919, 1921,  489,   51,  455,  457,   50
 14, 1919, 1920, 1922, 1921,  455,  456,  458,  457
 15, 1920,  569,  570, 1922,  456,   38,   39,  458
 16,  489, 1921, 1923,  490,   50,  457,  459,   49
 17, 1921, 1922, 1924, 1923,  457,  458,  460,  459
 18, 1922,  570,  571, 1924,  458,   39,   40,  460
 19,  490, 1923, 1925,  491,   49,  459,  461,   48
 20, 1923, 1924, 1926, 1925,  459,  460,  462,  461
** ... 2020 like lines cut
*Nset, nset=Set-1, generate
    1,  2992,     1
*Elset, elset=Set-1, generate
    1,  2040,     1
** Section: Section-1
*Solid Section, elset=Set-1, material=Material-1
,
*End Instance
**  
*Instance, name=Part-2-1, part=Part-2
         8.8,           0.,           0.
*Node
      1,           3.,           0.,           5.
      2,           5.,           0.,           5.
      3,           5.,           0.,           8.
      4,           3.,           0.,           8.
      5,           5.,         3.75,           5.
      6,           5.,         3.75,           8.
      7,           3.,         3.75,           8.
      8,           3.,         3.75,           5.
      9,           3.,         3.25,           5.
     10,           5.,         3.25,           5.
     11,           0.,           0.,           5.
     12,           0.,         3.75,           5.
     13,           0.,         3.75,           8.
     14,           0.,           0.,           8.
     15,           3.,           0.,           3.
     16,           3.,         3.25,           3.
     17,           5.,         3.25,           3.
     18,           5.,           0.,           3.
     19,           0.,           0.,           3.
     20,           0.,         3.75,           3.
** ... 5288 like lines cut
*Element, type=C3D8R
  1,   97,  663, 2409,  537,    1,   37,  481,   58
  2,  663,  664, 2410, 2409,   37,   38,  482,  481
  3,  664,  665, 2411, 2410,   38,   39,  483,  482
  4,  665,  666, 2412, 2411,   39,   40,  484,  483
  5,  666,  107,  600, 2412,   40,    2,   41,  484
  6,  537, 2409, 2413,  538,   58,  481,  485,   57
  7, 2409, 2410, 2414, 2413,  481,  482,  486,  485
  8, 2410, 2411, 2415, 2414,  482,  483,  487,  486
  9, 2411, 2412, 2416, 2415,  483,  484,  488,  487
 10, 2412,  600,  601, 2416,  484,   41,   42,  488
 11,  538, 2413, 2417,  539,   57,  485,  489,   56
 12, 2413, 2414, 2418, 2417,  485,  486,  490,  489
 13, 2414, 2415, 2419, 2418,  486,  487,  491,  490
 14, 2415, 2416, 2420, 2419,  487,  488,  492,  491
 15, 2416,  601,  602, 2420,  488,   42,   43,  492
 16,  539, 2417, 2421,  540,   56,  489,  493,   55
 17, 2417, 2418, 2422, 2421,  489,  490,  494,  493
 18, 2418, 2419, 2423, 2422,  490,  491,  495,  494
 19, 2419, 2420, 2424, 2423,  491,  492,  496,  495
 20, 2420,  602,  603, 2424,  492,   43,   44,  496
** ... 4365 like lines cut
*Nset, nset=Set-1, generate
    1,  5308,     1
*Elset, elset=Set-1, generate
    1,  4385,     1
** Section: Section-2
*Solid Section, elset=Set-1, material=Material-2
,
*End Instance
**  
*Nset, nset=Set-20, instance=Part-2-1
    1,    2,    3,    4,   11,   14,   15,   18,   19,   24,   25,   28,   29,   32,   34,   36
   37,   38,   39,   40,   41,   42,   43,   44,   45,   46,   47,   48,   49,   50,   51,   52
   53,   54,   55,   56,   57,   58,  135,  136,  137,  138,  139,  140,  141,  158,  159,  160
  161,  162,  163,  164,  165,  166,  167,  168,  169,  170,  171,  199,  200,  201,  202,  203
  204,  205,  206,  207,  208,  209,  210,  235,  236,  237,  238,  239,  240,  241,  242,  243
  244,  245,  275,  276,  277,  278,  279,  280,  281,  282,  283,  284,  285,  286,  287,  288
  289,  290,  291,  292,  293,  294,  295,  331,  332,  333,  334,  335,  336,  337,  338,  339
  340,  341,  374,  375,  376,  377,  378,  379,  380,  381,  382,  383,  384,  385,  386,  387
  388,  389,  390,  391,  392,  393,  394,  426,  427,  428,  429,  430,  431,  432,  433,  434
  435,  436,  460,  461,  462,  463,  464,  465,  466,  467,  468,  469,  470,  471,  472,  473
  481,  482,  483,  484,  485,  486,  487,  488,  489,  490,  491,  492,  493,  494,  495,  496
  497,  498,  499,  500,  501,  502,  503,  504,  505,  506,  507,  508,  857,  858,  859,  860
  861,  862,  863,  864,  865,  866,  867,  868,  869,  870,  871,  872,  873,  874,  875,  876
  877,  878,  879,  880,  881,  882,  883,  884,  885,  886,  887,  888,  889,  890,  891,  892
  893,  894,  895,  896,  897,  898,  899,  900,  901,  902,  903,  904,  905, 1050, 1051, 1052
 1053, 1054, 1055, 1056, 1057, 1058, 1059, 1060, 1061, 1062, 1063, 1064, 1065, 1209, 1210, 1211
 1212, 1213, 1214, 1215, 1216, 1217, 1218, 1219, 1220, 1221, 1222, 1223, 1224, 1225, 1226, 1227
 1228, 1229, 1230, 1231, 1232, 1233, 1234, 1235, 1236, 1350, 1351, 1352, 1353, 1354, 1355, 1356
 1357, 1358, 1359, 1360, 1361, 1362, 1363, 1364, 1365, 1366, 1367, 1368, 1369, 1370, 1371, 1372
 1373, 1374, 1375, 1376, 1377, 1378, 1379, 1380, 1381, 1382, 1383, 1384, 1385, 1386, 1387, 1388
** ... 11 like lines cut
*Elset, elset=Set-20, instance=Part-2-1
    1,    2,    3,    4,    5,    6,    7,    8,    9,   10,   11,   12,   13,   14,   15,   16
   17,   18,   19,   20,   21,   22,   23,   24,   25,   26,   27,   28,   29,   30,   31,   32
   33,   34,   35,   36,   37,   38,   39,   40,  401,  411,  421,  431,  441,  451,  461,  471
  481,  491,  501,  511,  521,  531,  541,  551,  561,  571,  581,  591,  601,  611,  621,  631
  641,  651,  661,  671,  681,  691,  701,  711,  721,  731,  741,  751,  761,  771,  781,  791
  801,  811,  821,  831,  841,  851,  861,  871,  881,  891,  901,  911,  921,  931,  941,  951
  961,  971,  981,  991, 1001, 1011, 1021, 1031, 1041, 1050, 1059, 1068, 1077, 1086, 1095, 1104
 1113, 1122, 1131, 1140, 1149, 1158, 1167, 1176, 1185, 1194, 1203, 1212, 1221, 1230, 1239, 1248
 1257, 1266, 1276, 1286, 1296, 1306, 1316, 1326, 1336, 1346, 1356, 1366, 1376, 1386, 1396, 1406
 1416, 1426, 1436, 1446, 1456, 1466, 1476, 1486, 1496, 1506, 1516, 1526, 1536, 1546, 1556, 1566
 1576, 1586, 1596, 1606, 1616, 1626, 1636, 1646, 1656, 2242, 2243, 2244, 2245, 2246, 2247, 2248
 2249, 2250, 2251, 2252, 2253, 2254, 2255, 2256, 2257, 2258, 2259, 2260, 2261, 2262, 2263, 2264
 2265, 2266, 2267, 2268, 2269, 2270, 2271, 2272, 2273, 2274, 2275, 2276, 2277, 2278, 2279, 2280
 2281, 2282, 2283, 2284, 2285, 2286, 2287, 2288, 2289, 2290, 2291, 2292, 2293, 2294, 2295, 2296
 2297, 2298, 2299, 2300, 2301, 2302, 2303, 2304, 2305, 2351, 2352, 2353, 2354, 2355, 2401, 2402
 2403, 2404, 2405, 2451, 2452, 2453, 2454, 2455, 2501, 2502, 2503, 2504, 2505, 2551, 2552, 2553
 2554, 2555, 2601, 2602, 2603, 2604, 2605, 2651, 2652, 2653, 2654, 2655, 2701, 2702, 2703, 2704
 2705, 2706, 2716, 2726, 2736, 2746, 2756, 2766, 2776, 2786, 2796, 2806, 2816, 2826, 2836, 2846
 2856, 2866, 2876, 2886, 2896, 2906, 2916, 2926, 2936, 2946, 2956, 2966, 2976, 2986, 2996, 3006
 3016, 3026, 3036, 3046, 3056, 3066, 3076, 3086, 3096, 3106, 3116, 3126, 3136, 3146, 3156, 3166
** ... 8 like lines cut
*Nset, nset=Set-21, instance=Part-1-1
    1,    2,    5,    6,    7,    8,    9,   10,   13,   14,   15,   16,   21,   22,   23,   24
   25,   26,   27,   28,   29,   30,   31,   32,   33,   34,   55,   56,   57,   58,   59,   60
   61,   62,   63,   64,   65,   66,   67,   68,   69,   70,   71,   72,   73,   74,   75,   76
   86,   87,   88,   89,   90,   91,   92,   93,   94,  104,  105,  106,  107,  108,  109,  110
  111,  112,  113,  114,  141,  142,  143,  144,  145,  146,  153,  154,  155,  156,  157,  158
  159,  160,  161,  162,  163,  164,  165,  166,  167,  168,  169,  170,  171,  172,  173,  174
  227,  228,  229,  230,  231,  232,  233,  234,  235,  236,  237,  238,  239,  240,  241,  242
  243,  244,  245,  246,  256,  257,  267,  268,  269,  270,  271,  272,  273,  274,  275,  276
  277,  278,  279,  280,  281,  282,  283,  284,  285,  286,  287,  288,  289,  290,  291,  292
  293,  294,  295,  296,  297,  298,  299,  300,  301,  302,  303,  304,  305,  306,  307,  308
  309,  310,  311,  312,  313,  314,  315,  316,  317,  318,  319,  320,  321,  322,  323,  324
  343,  344,  345,  346,  347,  348,  349,  350,  351,  352,  353,  354,  355,  356,  357,  358
  359,  360,  361,  362,  363,  364,  365,  366,  367,  368,  369,  370,  371,  372,  373,  383
  384,  385,  386,  387,  388,  389,  390,  391,  401,  402,  403,  404,  405,  406,  407,  408
  409,  410,  411,  412,  437,  438,  439,  440,  441,  442,  443,  444,  445,  446,  447,  448
  467,  468,  469,  470,  471,  472,  473,  474,  475,  476,  477,  478,  479,  480,  481,  482
  483,  484,  647,  648,  649,  650,  651,  652,  653,  654,  655,  656,  657,  658,  659,  660
  661,  662,  663,  664,  809,  810,  811,  812,  813,  814,  815,  816,  817,  818,  819,  820
  833,  834,  835,  836,  837,  838,  839,  840,  841,  842,  843,  844, 1001, 1002, 1003, 1004
 1005, 1006, 1007, 1008, 1009, 1010, 1011, 1012, 1013, 1014, 1015, 1016, 1017, 1018, 1199, 1200
** ... 7 like lines cut
*Nset, nset=Set-21, instance=Part-2-1
    3,    4,    6,    7,   11,   12,   13,   14,   19,   20,   22,   23,   24,   25,   27,   28
   29,   30,   31,   32,   33,   34,   35,   36,   48,   49,   50,   51,   70,   71,   72,   73
   81,   82,   83,   84,   85,   86,   87,   88,   89,   98,   99,  100,  101,  102,  103,  104
  105,  106,  119,  120,  121,  122,  123,  124,  125,  126,  127,  142,  143,  144,  145,  146
  147,  148,  149,  150,  151,  152,  153,  154,  155,  156,  157,  158,  159,  160,  161,  162
  163,  164,  165,  166,  167,  168,  169,  170,  171,  172,  173,  174,  175,  176,  177,  178
  219,  220,  221,  222,  223,  224,  225,  226,  227,  242,  243,  244,  245,  250,  251,  252
  253,  261,  262,  263,  264,  265,  266,  267,  268,  269,  270,  271,  272,  273,  274,  282
  283,  284,  285,  286,  287,  288,  289,  290,  291,  292,  293,  294,  295,  296,  297,  298
  299,  300,  301,  302,  303,  304,  305,  306,  307,  308,  309,  310,  311,  312,  313,  318
  319,  320,  321,  322,  323,  324,  325,  326,  327,  328,  329,  330,  331,  332,  333,  334
  349,  350,  351,  352,  353,  354,  355,  356,  357,  358,  359,  360,  361,  362,  363,  364
  365,  366,  367,  368,  369,  370,  371,  372,  373,  374,  375,  376,  377,  378,  379,  380
  381,  382,  383,  384,  385,  386,  387,  395,  396,  397,  398,  399,  400,  401,  413,  414
  415,  416,  417,  418,  419,  420,  421,  422,  423,  424,  425,  426,  427,  428,  429,  444
  445,  446,  447,  448,  449,  450,  451,  452,  453,  454,  455,  456,  457,  458,  459,  460
  461,  462,  463,  464,  465,  466,  467,  468,  469,  470,  471,  472,  473,  474,  475,  476
  477,  478,  479,  480,  695,  696,  697,  698,  699,  700,  701,  702,  703,  704,  705,  706
  707,  708,  709,  710,  711,  712,  713,  714,  715,  716,  717,  718,  719,  720,  721,  722
  723,  724,  725,  726,  727,  728,  729,  730,  794,  795,  796,  797,  798,  799,  800,  801
** ... 38 like lines cut
*Elset, elset=Set-21, instance=Part-1-1
    1,    2,    3,   31,   32,   33,   61,   62,   63,   91,   92,   93,  121,  122,  123,  151
  152,  153,  181,  182,  183,  211,  212,  213,  241,  242,  243,  271,  272,  273,  274,  275
  276,  277,  278,  279,  280,  281,  282,  283,  284,  285,  286,  287,  288,  289,  290,  291
  292,  293,  294,  295,  296,  297,  298,  299,  300,  301,  302,  303,  331,  332,  333,  361
  362,  363,  391,  392,  393,  421,  422,  423,  451,  452,  453,  481,  482,  483,  511,  512
  513,  514,  515,  516,  517,  518,  519,  520,  521,  522,  523,  524,  525,  526,  527,  528
  529,  530,  531,  721,  722,  723,  724,  725,  726,  727,  728,  729,  730,  731,  732,  733
  734,  735,  736,  737,  738,  739,  740,  741,  742,  743,  744,  745,  746,  747,  748,  749
  750,  778,  779,  780,  808,  809,  810,  838,  839,  840,  868,  869,  870,  898,  899,  900
  928,  929,  930,  958,  959,  960,  988,  989,  990, 1018, 1019, 1020, 1021, 1031, 1041, 1051
 1061, 1071, 1081, 1091, 1101, 1111, 1121, 1131, 1141, 1151, 1161, 1171, 1181, 1191, 1201, 1211
 1221, 1231, 1241, 1251, 1261, 1271, 1281, 1291, 1292, 1293, 1294, 1295, 1296, 1297, 1298, 1299
 1300, 1301, 1302, 1303, 1304, 1305, 1306, 1307, 1308, 1309, 1310, 1311, 1312, 1313, 1314, 1315
 1316, 1317, 1318, 1319, 1320, 1321, 1322, 1323, 1324, 1325, 1326, 1327, 1328, 1329, 1330, 1331
 1332, 1333, 1334, 1335, 1336, 1337, 1338, 1339, 1340, 1341, 1342, 1343, 1344, 1345, 1346, 1347
 1348, 1349, 1350, 1378, 1379, 1380, 1408, 1409, 1410, 1438, 1439, 1440, 1468, 1469, 1470, 1498
 1499, 1500, 1528, 1529, 1530, 1558, 1559, 1560, 1588, 1589, 1590, 1618, 1619, 1620, 1621, 1622
 1623, 1624, 1625, 1626, 1627, 1628, 1629, 1630, 1631, 1632, 1633, 1634, 1635, 1636, 1637, 1638
 1639, 1640, 1641, 2020, 2021, 2022, 2023, 2024, 2025, 2026, 2027, 2028, 2029, 2030, 2031, 2032
 2033, 2034, 2035, 2036, 2037, 2038, 2039, 2040
*Elset, elset=Set-21, instance=Part-2-1
   36,   37,   38,   39,   40,   76,   77,   78,   79,   80,  116,  117,  118,  119,  120,  156
  157,  158,  159,  160,  196,  197,  198,  199,  200,  236,  237,  238,  239,  240,  276,  277
  278,  279,  280,  316,  317,  318,  319,  320,  356,  357,  358,  359,  360,  396,  397,  398
  399,  400,  401,  402,  403,  404,  405,  406,  407,  408,  409,  410,  481,  482,  483,  484
  485,  486,  487,  488,  489,  490,  561,  562,  563,  564,  565,  566,  567,  568,  569,  570
  641,  642,  643,  644,  645,  646,  647,  648,  649,  650,  721,  722,  723,  724,  725,  726
  727,  728,  729,  730,  801,  802,  803,  804,  805,  806,  807,  808,  809,  810,  881,  882
  883,  884,  885,  886,  887,  888,  889,  890,  961,  962,  963,  964,  965,  966,  967,  968
  969,  970,  971,  972,  973,  974,  975,  976,  977,  978,  979,  980,  981,  982,  983,  984
  985,  986,  987,  988,  989,  990,  991,  992,  993,  994,  995,  996,  997,  998,  999, 1000
 1001, 1002, 1003, 1004, 1005, 1006, 1007, 1008, 1009, 1010, 1011, 1012, 1013, 1014, 1015, 1016
 1017, 1018, 1019, 1020, 1021, 1022, 1023, 1024, 1025, 1026, 1027, 1028, 1029, 1030, 1031, 1032
 1033, 1034, 1035, 1036, 1037, 1038, 1039, 1040, 1266, 1267, 1268, 1269, 1270, 1271, 1272, 1273
 1274, 1275, 1346, 1347, 1348, 1349, 1350, 1351, 1352, 1353, 1354, 1355, 1426, 1427, 1428, 1429
 1430, 1431, 1432, 1433, 1434, 1435, 1506, 1507, 1508, 1509, 1510, 1511, 1512, 1513, 1514, 1515
 1586, 1587, 1588, 1589, 1590, 1591, 1592, 1593, 1594, 1595, 1666, 1674, 1682, 1690, 1698, 1706
 1714, 1722, 1723, 1724, 1725, 1726, 1727, 1728, 1729, 1730, 1738, 1746, 1754, 1762, 1770, 1778
 1786, 1787, 1788, 1789, 1790, 1791, 1792, 1793, 1794, 1802, 1810, 1818, 1826, 1834, 1842, 1850
 1851, 1852, 1853, 1854, 1855, 1856, 1857, 1858, 1866, 1874, 1882, 1890, 1898, 1906, 1914, 1915
 1916, 1917, 1918, 1919, 1920, 1921, 1922, 1930, 1938, 1946, 1954, 1962, 1970, 1978, 1979, 1980
** ... 30 like lines cut
*Elset, elset=_Surf-27_S4, internal, instance=Part-2-1, generate
 1049,  1265,     9
*Surface, type=ELEMENT, name=Surf-27
_Surf-27_S4, S4
*Elset, elset=_m_Surf-23_S4, internal, instance=Part-2-1
  410,  420,  430,  440,  450,  460,  470,  480,  490,  500,  510,  520,  530,  540,  550,  560
  570,  580,  590,  600,  610,  620,  630,  640,  650,  660,  670,  680,  690,  700,  710,  720
  730,  740,  750,  760,  770,  780,  790,  800,  810,  820,  830,  840,  850,  860,  870,  880
  890,  900,  910,  920,  930,  940,  950,  960,  970,  980,  990, 1000, 1010, 1020, 1030, 1040
 1275, 1285, 1295, 1305, 1315, 1325, 1335, 1345, 1355, 1365, 1375, 1385, 1395, 1405, 1415, 1425
 1435, 1445, 1455, 1465, 1475, 1485, 1495, 1505, 1515, 1525, 1535, 1545, 1555, 1565, 1575, 1585
 1595, 1605, 1615, 1625, 1635, 1645, 1655, 1665, 2715, 2725, 2735, 2745, 2755, 2765, 2775, 2785
 2795, 2805, 2815, 2825, 2835, 2845, 2855, 2865, 2875, 2885, 2895, 2905, 2915, 2925, 2935, 2945
 2955, 2965, 2975, 2985, 2995, 3005, 3015, 3025, 3035, 3045, 3055, 3065, 3075, 3085, 3095, 3105
 3115, 3125, 3135, 3145, 3155, 3165, 3175, 3185, 3195, 3205, 3215, 3225, 3235, 3245, 3255, 3265
 3275, 3285, 3295, 3305, 3315, 3325, 3335, 3345, 3755, 3765, 3775, 3785, 3795, 3805, 3815, 3825
 3835, 3845, 3855, 3865, 3875, 3885, 3895, 3905, 3915, 3925, 3935, 3945, 3955, 3965, 3975, 3985
 3995, 4005, 4015, 4025, 4035, 4045, 4055, 4065, 4075, 4085, 4095, 4105, 4115, 4125, 4135, 4145
 4155, 4165, 4175, 4185, 4195, 4205, 4215, 4225, 4235, 4245, 4255, 4265, 4275, 4285, 4295, 4305
 4315, 4325, 4335, 4345, 4355, 4365, 4375, 4385
*Elset, elset=_m_Surf-23_S3, internal, instance=Part-2-1
 2306, 2307, 2308, 2309, 2310, 2356, 2357, 2358, 2359, 2360, 2406, 2407, 2408, 2409, 2410, 2456
 2457, 2458, 2459, 2460, 2506, 2507, 2508, 2509, 2510, 2556, 2557, 2558, 2559, 2560, 2606, 2607
 2608, 2609, 2610, 2656, 2657, 2658, 2659, 2660, 3346, 3347, 3348, 3349, 3350, 3396, 3397, 3398
 3399, 3400, 3446, 3447, 3448, 3449, 3450, 3496, 3497, 3498, 3499, 3500, 3546, 3547, 3548, 3549
 3550, 3596, 3597, 3598, 3599, 3600, 3646, 3647, 3648, 3649, 3650, 3696, 3697, 3698, 3699, 3700
*Elset, elset=_m_Surf-23_S2, internal, instance=Part-2-1, generate
 1666,  1729,     1
*Elset, elset=_m_Surf-23_S1, internal, instance=Part-2-1, generate
 361,  400,    1
*Surface, type=ELEMENT, name=m_Surf-23
_m_Surf-23_S4, S4
_m_Surf-23_S3, S3
_m_Surf-23_S2, S2
_m_Surf-23_S1, S1
*Elset, elset=_m_Surf-25_S4, internal, instance=Part-2-1
  410,  420,  430,  440,  450,  460,  470,  480,  490,  500,  510,  520,  530,  540,  550,  560
  570,  580,  590,  600,  610,  620,  630,  640,  650,  660,  670,  680,  690,  700,  710,  720
  730,  740,  750,  760,  770,  780,  790,  800,  810,  820,  830,  840,  850,  860,  870,  880
  890,  900,  910,  920,  930,  940,  950,  960,  970,  980,  990, 1000, 1010, 1020, 1030, 1040
 1275, 1285, 1295, 1305, 1315, 1325, 1335, 1345, 1355, 1365, 1375, 1385, 1395, 1405, 1415, 1425
 1435, 1445, 1455, 1465, 1475, 1485, 1495, 1505, 1515, 1525, 1535, 1545, 1555, 1565, 1575, 1585
 1595, 1605, 1615, 1625, 1635, 1645, 1655, 1665, 2715, 2725, 2735, 2745, 2755, 2765, 2775, 2785
 2795, 2805, 2815, 2825, 2835, 2845, 2855, 2865, 2875, 2885, 2895, 2905, 2915, 2925, 2935, 2945
 2955, 2965, 2975, 2985, 2995, 3005, 3015, 3025, 3035, 3045, 3055, 3065, 3075, 3085, 3095, 3105
 3115, 3125, 3135, 3145, 3155, 3165, 3175, 3185, 3195, 3205, 3215, 3225, 3235, 3245, 3255, 3265
 3275, 3285, 3295, 3305, 3315, 3325, 3335, 3345, 3755, 3765, 3775, 3785, 3795, 3805, 3815, 3825
 3835, 3845, 3855, 3865, 3875, 3885, 3895, 3905, 3915, 3925, 3935, 3945, 3955, 3965, 3975, 3985
 3995, 4005, 4015, 4025, 4035, 4045, 4055, 4065, 4075, 4085, 4095, 4105, 4115, 4125, 4135, 4145
 4155, 4165, 4175, 4185, 4195, 4205, 4215, 4225, 4235, 4245, 4255, 4265, 4275, 4285, 4295, 4305
 4315, 4325, 4335, 4345, 4355, 4365, 4375, 4385
*Elset, elset=_m_Surf-25_S3, internal, instance=Part-2-1
 2306, 2307, 2308, 2309, 2310, 2356, 2357, 2358, 2359, 2360, 2406, 2407, 2408, 2409, 2410, 2456
 2457, 2458, 2459, 2460, 2506, 2507, 2508, 2509, 2510, 2556, 2557, 2558, 2559, 2560, 2606, 2607
 2608, 2609, 2610, 2656, 2657, 2658, 2659, 2660, 3346, 3347, 3348, 3349, 3350, 3396, 3397, 3398
 3399, 3400, 3446, 3447, 3448, 3449, 3450, 3496, 3497, 3498, 3499, 3500, 3546, 3547, 3548, 3549
 3550, 3596, 3597, 3598, 3599, 3600, 3646, 3647, 3648, 3649, 3650, 3696, 3697, 3698, 3699, 3700
*Elset, elset=_m_Surf-25_S2, internal, instance=Part-2-1, generate
 1666,  1729,     1
*Elset, elset=_m_Surf-25_S1, internal, instance=Part-2-1, generate
 361,  400,    1
*Surface, type=ELEMENT, name=m_Surf-25
_m_Surf-25_S4, S4
_m_Surf-25_S3, S3
_m_Surf-25_S2, S2
_m_Surf-25_S1, S1
*Elset, elset=_s_Surf-23_S4, internal, instance=Part-1-1
  513,  516,  519,  522,  525,  528,  531,  534,  537,  540,  543,  546,  549,  552,  555,  558
  561,  564,  567,  570,  573,  576,  579,  582,  585,  588,  591,  594,  597,  600,  603,  606
  609,  612,  615,  618,  621,  624,  627,  630,  633,  636,  639,  642,  645,  648,  651,  654
  657,  660,  663,  666,  669,  672,  675,  678,  681,  684,  687,  690,  693,  696,  699,  702
  705,  708,  711,  714,  717,  720, 1323, 1326, 1329, 1332, 1335, 1338, 1341, 1344, 1347, 1350
 1353, 1356, 1359, 1362, 1365, 1368, 1371, 1374, 1377, 1380, 1383, 1386, 1389, 1392, 1395, 1398
 1401, 1404, 1407, 1410, 1413, 1416, 1419, 1422, 1425, 1428, 1431, 1434, 1437, 1440, 1443, 1446
 1449, 1452, 1455, 1458, 1461, 1464, 1467, 1470, 1473, 1476, 1479, 1482, 1485, 1488, 1491, 1494
 1497, 1500, 1503, 1506, 1509, 1512, 1515, 1518, 1521, 1524, 1527, 1530, 1533, 1536, 1539, 1542
 1545, 1548, 1551, 1554, 1557, 1560, 1563, 1566, 1569, 1572, 1575, 1578, 1581, 1584, 1587, 1590
 1593, 1596, 1599, 1602, 1605, 1608, 1611, 1614, 1617, 1620
*Elset, elset=_s_Surf-23_S6, internal, instance=Part-1-1
    1,    4,    7,   10,   13,   16,   19,   22,   25,   28,   31,   34,   37,   40,   43,   46
   49,   52,   55,   58,   61,   64,   67,   70,   73,   76,   79,   82,   85,   88,   91,   94
   97,  100,  103,  106,  109,  112,  115,  118,  121,  124,  127,  130,  133,  136,  139,  142
  145,  148,  151,  154,  157,  160,  163,  166,  169,  172,  175,  178,  181,  184,  187,  190
  193,  196,  199,  202,  205,  208,  211,  214,  217,  220,  223,  226,  229,  232,  235,  238
  241,  244,  247,  250,  253,  256,  259,  262,  265,  268,  271,  274,  277,  280,  283,  286
  289,  292,  295,  298,  301,  304,  307,  310,  313,  316,  319,  322,  325,  328,  331,  334
  337,  340,  343,  346,  349,  352,  355,  358,  361,  364,  367,  370,  373,  376,  379,  382
  385,  388,  391,  394,  397,  400,  403,  406,  409,  412,  415,  418,  421,  424,  427,  430
  433,  436,  439,  442,  445,  448,  451,  454,  457,  460,  463,  466,  469,  472,  475,  478
  481,  484,  487,  490,  493,  496,  499,  502,  505,  508,  721,  724,  727,  730,  733,  736
  739,  742,  745,  748,  751,  754,  757,  760,  763,  766,  769,  772,  775,  778,  781,  784
  787,  790,  793,  796,  799,  802,  805,  808,  811,  814,  817,  820,  823,  826,  829,  832
  835,  838,  841,  844,  847,  850,  853,  856,  859,  862,  865,  868,  871,  874,  877,  880
  883,  886,  889,  892,  895,  898,  901,  904,  907,  910,  913,  916,  919,  922,  925,  928
  931,  934,  937,  940,  943,  946,  949,  952,  955,  958,  961,  964,  967,  970,  973,  976
  979,  982,  985,  988,  991,  994,  997, 1000, 1003, 1006, 1009, 1012, 1015, 1018, 1621, 1624
 1627, 1630, 1633, 1636, 1639, 1642, 1645, 1648, 1651, 1654, 1657, 1660, 1663, 1666, 1669, 1672
 1675, 1678, 1681, 1684, 1687, 1690, 1693, 1696, 1699, 1702, 1705, 1708, 1711, 1714, 1717, 1720
 1723, 1726, 1729, 1732, 1735, 1738, 1741, 1744, 1747, 1750, 1753, 1756, 1759, 1762, 1765, 1768
 1771, 1774, 1777, 1780, 1783, 1786, 1789, 1792, 1795, 1798, 1801, 1804, 1807, 1810, 1813, 1816
 1819, 1822, 1825, 1828
*Elset, elset=_s_Surf-23_S3, internal, instance=Part-1-1
 1021, 1022, 1023, 1024, 1025, 1026, 1027, 1028, 1029, 1030, 1051, 1052, 1053, 1054, 1055, 1056
 1057, 1058, 1059, 1060, 1081, 1082, 1083, 1084, 1085, 1086, 1087, 1088, 1089, 1090, 1111, 1112
 1113, 1114, 1115, 1116, 1117, 1118, 1119, 1120, 1141, 1142, 1143, 1144, 1145, 1146, 1147, 1148
 1149, 1150, 1171, 1172, 1173, 1174, 1175, 1176, 1177, 1178, 1179, 1180, 1201, 1202, 1203, 1204
 1205, 1206, 1207, 1208, 1209, 1210, 1231, 1232, 1233, 1234, 1235, 1236, 1237, 1238, 1239, 1240
 1261, 1262, 1263, 1264, 1265, 1266, 1267, 1268, 1269, 1270, 1291, 1292, 1293, 1294, 1295, 1296
 1297, 1298, 1299, 1300, 1831, 1832, 1833, 1834, 1835, 1836, 1837, 1852, 1853, 1854, 1855, 1856
 1857, 1858, 1873, 1874, 1875, 1876, 1877, 1878, 1879, 1894, 1895, 1896, 1897, 1898, 1899, 1900
 1915, 1916, 1917, 1918, 1919, 1920, 1921, 1936, 1937, 1938, 1939, 1940, 1941, 1942, 1957, 1958
 1959, 1960, 1961, 1962, 1963, 1978, 1979, 1980, 1981, 1982, 1983, 1984, 1999, 2000, 2001, 2002
 2003, 2004, 2005, 2020, 2021, 2022, 2023, 2024, 2025, 2026
*Surface, type=ELEMENT, name=s_Surf-23
_s_Surf-23_S4, S4
_s_Surf-23_S6, S6
_s_Surf-23_S3, S3
*Elset, elset=_s_Surf-25_S4, internal, instance=Part-1-1
  513,  516,  519,  522,  525,  528,  531,  534,  537,  540,  543,  546,  549,  552,  555,  558
  561,  564,  567,  570,  573,  576,  579,  582,  585,  588,  591,  594,  597,  600,  603,  606
  609,  612,  615,  618,  621,  624,  627,  630,  633,  636,  639,  642,  645,  648,  651,  654
  657,  660,  663,  666,  669,  672,  675,  678,  681,  684,  687,  690,  693,  696,  699,  702
  705,  708,  711,  714,  717,  720, 1323, 1326, 1329, 1332, 1335, 1338, 1341, 1344, 1347, 1350
 1353, 1356, 1359, 1362, 1365, 1368, 1371, 1374, 1377, 1380, 1383, 1386, 1389, 1392, 1395, 1398
 1401, 1404, 1407, 1410, 1413, 1416, 1419, 1422, 1425, 1428, 1431, 1434, 1437, 1440, 1443, 1446
 1449, 1452, 1455, 1458, 1461, 1464, 1467, 1470, 1473, 1476, 1479, 1482, 1485, 1488, 1491, 1494
 1497, 1500, 1503, 1506, 1509, 1512, 1515, 1518, 1521, 1524, 1527, 1530, 1533, 1536, 1539, 1542
 1545, 1548, 1551, 1554, 1557, 1560, 1563, 1566, 1569, 1572, 1575, 1578, 1581, 1584, 1587, 1590
 1593, 1596, 1599, 1602, 1605, 1608, 1611, 1614, 1617, 1620
*Elset, elset=_s_Surf-25_S6, internal, instance=Part-1-1
    1,    4,    7,   10,   13,   16,   19,   22,   25,   28,   31,   34,   37,   40,   43,   46
   49,   52,   55,   58,   61,   64,   67,   70,   73,   76,   79,   82,   85,   88,   91,   94
   97,  100,  103,  106,  109,  112,  115,  118,  121,  124,  127,  130,  133,  136,  139,  142
  145,  148,  151,  154,  157,  160,  163,  166,  169,  172,  175,  178,  181,  184,  187,  190
  193,  196,  199,  202,  205,  208,  211,  214,  217,  220,  223,  226,  229,  232,  235,  238
  241,  244,  247,  250,  253,  256,  259,  262,  265,  268,  271,  274,  277,  280,  283,  286
  289,  292,  295,  298,  301,  304,  307,  310,  313,  316,  319,  322,  325,  328,  331,  334
  337,  340,  343,  346,  349,  352,  355,  358,  361,  364,  367,  370,  373,  376,  379,  382
  385,  388,  391,  394,  397,  400,  403,  406,  409,  412,  415,  418,  421,  424,  427,  430
  433,  436,  439,  442,  445,  448,  451,  454,  457,  460,  463,  466,  469,  472,  475,  478
  481,  484,  487,  490,  493,  496,  499,  502,  505,  508,  721,  724,  727,  730,  733,  736
  739,  742,  745,  748,  751,  754,  757,  760,  763,  766,  769,  772,  775,  778,  781,  784
  787,  790,  793,  796,  799,  802,  805,  808,  811,  814,  817,  820,  823,  826,  829,  832
  835,  838,  841,  844,  847,  850,  853,  856,  859,  862,  865,  868,  871,  874,  877,  880
  883,  886,  889,  892,  895,  898,  901,  904,  907,  910,  913,  916,  919,  922,  925,  928
  931,  934,  937,  940,  943,  946,  949,  952,  955,  958,  961,  964,  967,  970,  973,  976
  979,  982,  985,  988,  991,  994,  997, 1000, 1003, 1006, 1009, 1012, 1015, 1018, 1621, 1624
 1627, 1630, 1633, 1636, 1639, 1642, 1645, 1648, 1651, 1654, 1657, 1660, 1663, 1666, 1669, 1672
 1675, 1678, 1681, 1684, 1687, 1690, 1693, 1696, 1699, 1702, 1705, 1708, 1711, 1714, 1717, 1720
 1723, 1726, 1729, 1732, 1735, 1738, 1741, 1744, 1747, 1750, 1753, 1756, 1759, 1762, 1765, 1768
 1771, 1774, 1777, 1780, 1783, 1786, 1789, 1792, 1795, 1798, 1801, 1804, 1807, 1810, 1813, 1816
 1819, 1822, 1825, 1828
*Elset, elset=_s_Surf-25_S3, internal, instance=Part-1-1
 1021, 1022, 1023, 1024, 1025, 1026, 1027, 1028, 1029, 1030, 1051, 1052, 1053, 1054, 1055, 1056
 1057, 1058, 1059, 1060, 1081, 1082, 1083, 1084, 1085, 1086, 1087, 1088, 1089, 1090, 1111, 1112
 1113, 1114, 1115, 1116, 1117, 1118, 1119, 1120, 1141, 1142, 1143, 1144, 1145, 1146, 1147, 1148
 1149, 1150, 1171, 1172, 1173, 1174, 1175, 1176, 1177, 1178, 1179, 1180, 1201, 1202, 1203, 1204
 1205, 1206, 1207, 1208, 1209, 1210, 1231, 1232, 1233, 1234, 1235, 1236, 1237, 1238, 1239, 1240
 1261, 1262, 1263, 1264, 1265, 1266, 1267, 1268, 1269, 1270, 1291, 1292, 1293, 1294, 1295, 1296
 1297, 1298, 1299, 1300, 1831, 1832, 1833, 1834, 1835, 1836, 1837, 1852, 1853, 1854, 1855, 1856
 1857, 1858, 1873, 1874, 1875, 1876, 1877, 1878, 1879, 1894, 1895, 1896, 1897, 1898, 1899, 1900
 1915, 1916, 1917, 1918, 1919, 1920, 1921, 1936, 1937, 1938, 1939, 1940, 1941, 1942, 1957, 1958
 1959, 1960, 1961, 1962, 1963, 1978, 1979, 1980, 1981, 1982, 1983, 1984, 1999, 2000, 2001, 2002
 2003, 2004, 2005, 2020, 2021, 2022, 2023, 2024, 2025, 2026
*Surface, type=ELEMENT, name=s_Surf-25
_s_Surf-25_S4, S4
_s_Surf-25_S6, S6
_s_Surf-25_S3, S3
** Constraint: Constraint-1
*Tie, name=Constraint-1, adjust=yes
s_Surf-25, m_Surf-25
*End Assembly
** 
** MATERIALS
** 
*Material, name=Material-1
*Density
2000.,
*Elastic
 2e+08, 0.2
*Mohr Coulomb
31., 0.1
*Mohr Coulomb Hardening
2800.,0.
*Material, name=Material-2
*Density
2100.,
*Elastic
 1.99e+10, 0.18
*Mohr Coulomb
 26.5, 0.1
*Mohr Coulomb Hardening
4910.,0.
** 
** INTERACTION PROPERTIES
** 
*Surface Interaction, name=IntProp-1
1.,
*Friction, slip tolerance=0.005
 0.48,
** 
** INTERACTIONS
** 
** Interaction: Int-1
*Contact Pair, interaction=IntProp-1, type=SURFACE TO SURFACE
s_Surf-23, m_Surf-23
** ----------------------------------------------------------------
** 
** STEP: Step-1
** 
*Step, name=Step-1, nlgeom=NO
*Static
0.01, 1., 1e-05, 1.
** 
** BOUNDARY CONDITIONS
** 
** Name: BC-1 Type: Symmetry/Antisymmetry/Encastre
*Boundary
Set-20, ENCASTRE
** Name: BC-2 Type: Symmetry/Antisymmetry/Encastre
*Boundary
Set-21, YASYMM
** 
** LOADS
** 
** Name: Load-1   Type: Pressure
*Dsload
Surf-27, P, 275280.
** 
** OUTPUT REQUESTS
** 
*Restart, write, frequency=0
** 
** FIELD OUTPUT: F-Output-1
** 
*Output, field
*Node Output
U, 
*Element Output, directions=YES
E, S
** 
** HISTORY OUTPUT: H-Output-1
** 
*Output, history, variable=PRESELECT
*End Step
