1

   Abaqus 3DEXPERIENCE R2018x                                  Date 18-Nov-2024   Time 21:42:14
   For use by INDIAN INSTITUTE OF TECHNOLOGY under license from Dassault Systemes or its subsidiary.

                                                                                 
                                                                                 
 STEP    1     INCREMENT     1     STEP TIME    0.00    


                        S T E P       1     S T A T I C   A N A L Y S I S


                                                                                          

     AUTOMATIC TIME CONTROL WITH -
          A SUGGESTED INITIAL TIME INCREMENT OF                1.000E-02
          AND A TOTAL TIME PERIOD OF                            1.00    
          THE MINIMUM TIME INCREMENT ALLOWED IS                1.000E-05
          THE MAXIMUM TIME INCREMENT ALLOWED IS                 1.00    

     LINEAR EQUATION SOLVER TYPE         DIRECT SPARSE

 CONVERGENCE TOLERANCE PARAMETERS FOR FORCE    
     CRITERION FOR RESIDUAL FORCE     FOR A NONLINEAR PROBLEM          5.000E-03
     CRITERION FOR DISP.    CORRECTION IN A NONLINEAR PROBLEM          1.000E-02
     INITIAL VALUE OF TIME AVERAGE FORCE                               1.000E-02
     AVERAGE FORCE     IS TIME AVERAGE FORCE    
     ALTERNATE CRIT. FOR RESIDUAL FORCE     FOR A NONLINEAR PROBLEM    2.000E-02
     CRITERION FOR ZERO FORCE     RELATIVE TO TIME AVRG. FORCE         1.000E-05
     CRITERION FOR RESIDUAL FORCE     WHEN THERE IS ZERO FLUX          1.000E-05
     CRITERION FOR DISP.    CORRECTION WHEN THERE IS ZERO FLUX         1.000E-03
     CRITERION FOR RESIDUAL FORCE     FOR A LINEAR INCREMENT           1.000E-08
     FIELD CONVERSION RATIO                                             1.00    
     CRITERION FOR ZERO FORCE     REL. TO TIME AVRG. MAX. FORCE        1.000E-05
     CRITERION FOR ZERO DISP.    RELATIVE TO CHARACTERISTIC LENGTH     1.000E-08

     VOLUMETRIC STRAIN COMPATIBILITY TOLERANCE FOR HYBRID SOLIDS       1.000E-05
     AXIAL STRAIN COMPATIBILITY TOLERANCE FOR HYBRID BEAMS             1.000E-05
     TRANS. SHEAR STRAIN COMPATIBILITY TOLERANCE FOR HYBRID BEAMS      1.000E-05
     SOFT CONTACT CONSTRAINT COMPATIBILITY TOLERANCE FOR P>P0          5.000E-03
     SOFT CONTACT CONSTRAINT COMPATIBILITY TOLERANCE FOR P=0.0         0.100    
     CONTACT FORCE ERROR TOLERANCE FOR CONVERT SDI=YES                 1.00    
     DISPLACEMENT COMPATIBILITY TOLERANCE FOR DCOUP ELEMENTS           1.000E-05
     ROTATION COMPATIBILITY TOLERANCE FOR DCOUP ELEMENTS               1.000E-05

 EQUILIBRIUM WILL BE CHECKED FOR SEVERE DISCONTINUITY ITERATIONS

 TIME INCREMENTATION CONTROL PARAMETERS:
     FIRST EQUILIBRIUM ITERATION FOR CONSECUTIVE DIVERGENCE CHECK              4
     EQUILIBRIUM ITERATION AT WHICH LOG. CONVERGENCE RATE CHECK BEGINS         8
     EQUILIBRIUM ITERATION AFTER WHICH ALTERNATE RESIDUAL IS USED              9
     MAXIMUM EQUILIBRIUM ITERATIONS ALLOWED                                   16
     EQUILIBRIUM ITERATION COUNT FOR CUT-BACK IN NEXT INCREMENT               10
     MAXIMUM EQUILIB. ITERS IN TWO INCREMENTS FOR TIME INCREMENT INCREASE      4
     MAXIMUM ITERATIONS FOR SEVERE DISCONTINUITIES                            50
     MAXIMUM ATTEMPTS ALLOWED IN AN INCREMENT                                  5
     MAXIMUM DISCON. ITERS IN TWO INCREMENTS FOR TIME INCREMENT INCREASE      50
     MAXIMUM CONTACT AUGMENTATIONS FOR *SURFACE BEHAVIOR,AUGMENTED LAGRANGE   50
     CUT-BACK FACTOR AFTER DIVERGENCE                                 0.2500    
     CUT-BACK FACTOR FOR TOO SLOW CONVERGENCE                         0.5000    
     CUT-BACK FACTOR AFTER TOO MANY EQUILIBRIUM ITERATIONS            0.7500    
     CUT-BACK FACTOR AFTER TOO MANY SEVERE DISCONTINUITY ITERATIONS   0.2500    
     CUT-BACK FACTOR AFTER PROBLEMS IN ELEMENT ASSEMBLY               0.2500    
     INCREASE FACTOR AFTER TWO INCREMENTS THAT CONVERGE QUICKLY        1.500    
     MAX. TIME INCREMENT INCREASE FACTOR ALLOWED                       1.500    
     MAX. TIME INCREMENT INCREASE FACTOR ALLOWED (DYNAMICS)            1.250    
     MAX. TIME INCREMENT INCREASE FACTOR ALLOWED (DIFFUSION)           2.000    
     MINIMUM TIME INCREMENT RATIO FOR EXTRAPOLATION TO OCCUR          0.1000    
     MAX. RATIO OF TIME INCREMENT TO STABILITY LIMIT                   1.000    
     FRACTION OF STABILITY LIMIT FOR NEW TIME INCREMENT               0.9500    
     TIME INCREMENT INCREASE FACTOR BEFORE A TIME POINT                1.000    

 CONTACT CONTROLS APPLIED TO ALL CONTACT PAIRS:
     GLOBAL STABILIZATION CONTROL IS NOT USED
     RELATIVE PENETRATION TOLERANCE FOR AUGMENTED LAGRANGE CONTACT:
          FINITE-SLIDING SURFACE-TO-SURFACE                            5.000E-02
          OTHERWISE                                                    1.000E-03

          PRINT OF INCREMENT NUMBER, TIME, ETC., EVERY    1  INCREMENTS

     THE MAXIMUM NUMBER OF INCREMENTS IN THIS STEP IS                     100

          LARGE DISPLACEMENT THEORY WILL BE USED

          UNSYMMETRIC MATRIX STORAGE AND SOLUTION WILL BE USED

     LINEAR EXTRAPOLATION WILL BE USED

     CHARACTERISTIC ELEMENT LENGTH     0.333    

     DETAILS REGARDING ACTUAL SOLUTION WAVEFRONT REQUESTED

     DETAILED OUTPUT OF DIAGNOSTICS TO DATABASE REQUESTED

     PRINT OF INCREMENT NUMBER, TIME, ETC., TO THE MESSAGE FILE EVERY     1  INCREMENTS

     COLLECTING MODEL CONSTRAINT INFORMATION FOR OVERCONSTRAINT CHECKS

     COLLECTING STEP CONSTRAINT INFORMATION FOR OVERCONSTRAINT CHECKS


  INCREMENT     1 STARTS. ATTEMPT NUMBER  1, TIME INCREMENT  1.000E-02

  NUMBER OF EQUATIONS =     22656     NUMBER OF RHS =    1
  NUMBER OF FLOATING PT. OPERATIONS =  1.87E+10

     CHECK POINT   START OF SOLVER    

     CHECK POINT  END OF SOLVER       

       ELAPSED USER TIME (SEC)      =   7.3000    
       ELAPSED SYSTEM TIME (SEC)    =  0.10000    
       ELAPSED TOTAL CPU TIME (SEC) =   7.4000    
       ELAPSED WALLCLOCK TIME (SEC) =          8

                  284 SEVERE DISCONTINUITIES OCCURRED DURING THIS ITERATION.
                  284 POINTS CHANGED FROM CLOSED TO OPEN

               CONVERGENCE CHECKS FOR SEVERE DISCONTINUITY ITERATION     1

   MAX. PENETRATION ERROR 756.711E-18   AT NODE PART-1-1.1815 OF CONTACT PAIR 
   (ASSEMBLY_S_SURF-23,ASSEMBLY_M_SURF-23)
   MAX. CONTACT FORCE ERROR -948.091E-03   AT NODE PART-1-1.745 OF CONTACT PAIR 
   (ASSEMBLY_S_SURF-23,ASSEMBLY_M_SURF-23)
          THE CONTACT CONSTRAINT ERRORS ARE WITHIN THE TOLERANCES.

 AVERAGE FORCE                       4.91       TIME AVG. FORCE        4.91    
 LARGEST RESIDUAL FORCE             3.714E-02   AT NODE        515   DOF  2
   INSTANCE: PART-2-1                                                                        
 LARGEST INCREMENT OF DISP.        -7.204E-07   AT NODE       1071   DOF  2
   INSTANCE: PART-2-1                                                                        
 LARGEST CORRECTION TO DISP.       -7.204E-07   AT NODE       1071   DOF  2
   INSTANCE: PART-2-1                                                                        
          FORCE     EQUILIBRIUM NOT ACHIEVED WITHIN TOLERANCE.

  NUMBER OF EQUATIONS =     22656     NUMBER OF RHS =    1
  NUMBER OF FLOATING PT. OPERATIONS =  1.87E+10

     CHECK POINT   START OF SOLVER    

     CHECK POINT  END OF SOLVER       

       ELAPSED USER TIME (SEC)      =   7.4000    
       ELAPSED SYSTEM TIME (SEC)    =  0.10000    
       ELAPSED TOTAL CPU TIME (SEC) =   7.5000    
       ELAPSED WALLCLOCK TIME (SEC) =          8

               CONVERGENCE CHECKS FOR EQUILIBRIUM ITERATION     1

   MAX. PENETRATION ERROR -1.25909E-15 AT NODE PART-1-1.500 OF CONTACT PAIR 
   (ASSEMBLY_S_SURF-23,ASSEMBLY_M_SURF-23)
   MAX. CONTACT FORCE ERROR -40.2741E-09  AT NODE PART-1-1.500 OF CONTACT PAIR 
   (ASSEMBLY_S_SURF-23,ASSEMBLY_M_SURF-23)
          THE CONTACT CONSTRAINTS HAVE CONVERGED.

 AVERAGE FORCE                       4.91       TIME AVG. FORCE        4.91    
 LARGEST RESIDUAL FORCE            -1.758E-07   AT NODE       2490   DOF  1
   INSTANCE: PART-1-1                                                                        
 LARGEST INCREMENT OF DISP.        -7.204E-07   AT NODE       1072   DOF  2
   INSTANCE: PART-2-1                                                                        
 LARGEST CORRECTION TO DISP.        5.017E-11   AT NODE       1691   DOF  2
   INSTANCE: PART-2-1                                                                        
          THE FORCE     EQUILIBRIUM EQUATIONS HAVE CONVERGED

 ITERATION SUMMARY FOR THE INCREMENT:   2 TOTAL ITERATIONS, OF WHICH
   1 ARE SEVERE DISCONTINUITY ITERATIONS AND  1 ARE EQUILIBRIUM ITERATIONS.

 TIME INCREMENT COMPLETED  1.000E-02,  FRACTION OF STEP COMPLETED  1.000E-02
 STEP TIME COMPLETED       1.000E-02,  TOTAL TIME COMPLETED        1.000E-02


  INCREMENT     2 STARTS. ATTEMPT NUMBER  1, TIME INCREMENT  1.000E-02

  NUMBER OF EQUATIONS =     22656     NUMBER OF RHS =    1
  NUMBER OF FLOATING PT. OPERATIONS =  1.87E+10

     CHECK POINT   START OF SOLVER    

     CHECK POINT  END OF SOLVER       

       ELAPSED USER TIME (SEC)      =   7.3000    
       ELAPSED SYSTEM TIME (SEC)    =   0.0000    
       ELAPSED TOTAL CPU TIME (SEC) =   7.3000    
       ELAPSED WALLCLOCK TIME (SEC) =          8

               CONVERGENCE CHECKS FOR EQUILIBRIUM ITERATION     1

   MAX. PENETRATION ERROR 2.14209E-15 AT NODE PART-1-1.500 OF CONTACT PAIR 
   (ASSEMBLY_S_SURF-23,ASSEMBLY_M_SURF-23)
   MAX. CONTACT FORCE ERROR 68.5179E-09  AT NODE PART-1-1.500 OF CONTACT PAIR 
   (ASSEMBLY_S_SURF-23,ASSEMBLY_M_SURF-23)
          THE CONTACT CONSTRAINTS HAVE CONVERGED.

 AVERAGE FORCE                       12.2       TIME AVG. FORCE        8.56    
 LARGEST RESIDUAL FORCE             3.996E-07   AT NODE       1336   DOF  1
   INSTANCE: PART-2-1                                                                        
 LARGEST INCREMENT OF DISP.        -7.204E-07   AT NODE       1072   DOF  2
   INSTANCE: PART-2-1                                                                        
 LARGEST CORRECTION TO DISP.        4.323E-13   AT NODE       1072   DOF  2
   INSTANCE: PART-2-1                                                                        
          THE FORCE     EQUILIBRIUM EQUATIONS HAVE CONVERGED
          TIME INCREMENT MAY NOW INCREASE TO    1.500E-02

 ITERATION SUMMARY FOR THE INCREMENT:   1 TOTAL ITERATIONS, OF WHICH
   0 ARE SEVERE DISCONTINUITY ITERATIONS AND  1 ARE EQUILIBRIUM ITERATIONS.

 TIME INCREMENT COMPLETED  1.000E-02,  FRACTION OF STEP COMPLETED  2.000E-02
 STEP TIME COMPLETED       2.000E-02,  TOTAL TIME COMPLETED        2.000E-02


  INCREMENT     3 STARTS. ATTEMPT NUMBER  1, TIME INCREMENT  1.500E-02

  NUMBER OF EQUATIONS =     22656     NUMBER OF RHS =    1
  NUMBER OF FLOATING PT. OPERATIONS =  1.87E+10

     CHECK POINT   START OF SOLVER    

     CHECK POINT  END OF SOLVER       

       ELAPSED USER TIME (SEC)      =   7.7000    
       ELAPSED SYSTEM TIME (SEC)    =   0.0000    
       ELAPSED TOTAL CPU TIME (SEC) =   7.7000    
       ELAPSED WALLCLOCK TIME (SEC) =          8

               CONVERGENCE CHECKS FOR EQUILIBRIUM ITERATION     1

   MAX. PENETRATION ERROR 2.36733E-15 AT NODE PART-1-1.1290 OF CONTACT PAIR 
   (ASSEMBLY_S_SURF-23,ASSEMBLY_M_SURF-23)
   MAX. CONTACT FORCE ERROR 71.7374E-09  AT NODE PART-1-1.1290 OF CONTACT PAIR 
   (ASSEMBLY_S_SURF-23,ASSEMBLY_M_SURF-23)
          THE CONTACT CONSTRAINTS HAVE CONVERGED.

 AVERAGE FORCE                       21.3       TIME AVG. FORCE        12.8    
 LARGEST RESIDUAL FORCE             -4.22       AT NODE       3141   DOF  1
   INSTANCE: PART-2-1                                                                        
 LARGEST INCREMENT OF DISP.        -1.159E-06   AT NODE       1072   DOF  2
   INSTANCE: PART-2-1                                                                        
 LARGEST CORRECTION TO DISP.       -8.093E-08   AT NODE       3173   DOF  2
   INSTANCE: PART-2-1                                                                        
          FORCE     EQUILIBRIUM NOT ACHIEVED WITHIN TOLERANCE.

  NUMBER OF EQUATIONS =     22656     NUMBER OF RHS =    1
  NUMBER OF FLOATING PT. OPERATIONS =  1.87E+10

     CHECK POINT   START OF SOLVER    

     CHECK POINT  END OF SOLVER       

       ELAPSED USER TIME (SEC)      =   8.1000    
       ELAPSED SYSTEM TIME (SEC)    =   0.0000    
       ELAPSED TOTAL CPU TIME (SEC) =   8.1000    
       ELAPSED WALLCLOCK TIME (SEC) =          9

               CONVERGENCE CHECKS FOR EQUILIBRIUM ITERATION     2

   MAX. PENETRATION ERROR -1.24066E-15 AT NODE PART-1-1.1291 OF CONTACT PAIR 
   (ASSEMBLY_S_SURF-23,ASSEMBLY_M_SURF-23)
   MAX. CONTACT FORCE ERROR -37.5959E-09  AT NODE PART-1-1.1291 OF CONTACT PAIR 
   (ASSEMBLY_S_SURF-23,ASSEMBLY_M_SURF-23)
          THE CONTACT CONSTRAINTS HAVE CONVERGED.

 AVERAGE FORCE                       21.3       TIME AVG. FORCE        12.8    
 LARGEST RESIDUAL FORCE            -2.205E-02   AT NODE       3156   DOF  2
   INSTANCE: PART-2-1                                                                        
 LARGEST INCREMENT OF DISP.        -1.161E-06   AT NODE       1072   DOF  2
   INSTANCE: PART-2-1                                                                        
 LARGEST CORRECTION TO DISP.       -1.764E-09   AT NODE       1076   DOF  3
   INSTANCE: PART-2-1                                                                        
          THE FORCE     EQUILIBRIUM EQUATIONS HAVE CONVERGED
          TIME INCREMENT MAY NOW INCREASE TO    2.250E-02

 ITERATION SUMMARY FOR THE INCREMENT:   2 TOTAL ITERATIONS, OF WHICH
   0 ARE SEVERE DISCONTINUITY ITERATIONS AND  2 ARE EQUILIBRIUM ITERATIONS.

 TIME INCREMENT COMPLETED  1.500E-02,  FRACTION OF STEP COMPLETED  3.500E-02
 STEP TIME COMPLETED       3.500E-02,  TOTAL TIME COMPLETED        3.500E-02


  INCREMENT     4 STARTS. ATTEMPT NUMBER  1, TIME INCREMENT  2.250E-02

  NUMBER OF EQUATIONS =     22656     NUMBER OF RHS =    1
  NUMBER OF FLOATING PT. OPERATIONS =  1.87E+10

     CHECK POINT   START OF SOLVER    

     CHECK POINT  END OF SOLVER       

       ELAPSED USER TIME (SEC)      =   7.8000    
       ELAPSED SYSTEM TIME (SEC)    =  0.10000    
       ELAPSED TOTAL CPU TIME (SEC) =   7.9000    
       ELAPSED WALLCLOCK TIME (SEC) =          8

                   36 SEVERE DISCONTINUITIES OCCURRED DURING THIS ITERATION.
                   12 POINTS CHANGED FROM OPEN TO CLOSED
                   24 POINTS CHANGED FROM CLOSED TO OPEN

               CONVERGENCE CHECKS FOR SEVERE DISCONTINUITY ITERATION     1

   MAX. PENETRATION ERROR 51.4090E-12  AT NODE PART-1-1.31 OF CONTACT PAIR 
   (ASSEMBLY_S_SURF-23,ASSEMBLY_M_SURF-23)
   MAX. CONTACT FORCE ERROR -17.3770E-03  AT NODE PART-1-1.1046 OF CONTACT PAIR 
   (ASSEMBLY_S_SURF-23,ASSEMBLY_M_SURF-23)
          THE CONTACT CONSTRAINT ERRORS ARE WITHIN THE TOLERANCES.

 AVERAGE FORCE                       35.5       TIME AVG. FORCE        18.5    
 LARGEST RESIDUAL FORCE             -231.       AT NODE       3157   DOF  2
   INSTANCE: PART-2-1                                                                        
 LARGEST INCREMENT OF DISP.        -2.460E-06   AT NODE       1072   DOF  2
   INSTANCE: PART-2-1                                                                        
 LARGEST CORRECTION TO DISP.       -7.479E-07   AT NODE       3156   DOF  2
   INSTANCE: PART-2-1                                                                        
          FORCE     EQUILIBRIUM NOT ACHIEVED WITHIN TOLERANCE.

  NUMBER OF EQUATIONS =     22656     NUMBER OF RHS =    1
  NUMBER OF FLOATING PT. OPERATIONS =  1.87E+10

     CHECK POINT   START OF SOLVER    

     CHECK POINT  END OF SOLVER       

       ELAPSED USER TIME (SEC)      =   8.2000    
       ELAPSED SYSTEM TIME (SEC)    =   0.0000    
       ELAPSED TOTAL CPU TIME (SEC) =   8.2000    
       ELAPSED WALLCLOCK TIME (SEC) =          8

               CONVERGENCE CHECKS FOR EQUILIBRIUM ITERATION     1

   MAX. PENETRATION ERROR -1.03745E-15 AT NODE PART-1-1.1296 OF CONTACT PAIR 
   (ASSEMBLY_S_SURF-23,ASSEMBLY_M_SURF-23)
   MAX. CONTACT FORCE ERROR -35.4501E-09  AT NODE PART-1-1.1037 OF CONTACT PAIR 
   (ASSEMBLY_S_SURF-23,ASSEMBLY_M_SURF-23)
          THE CONTACT CONSTRAINTS HAVE CONVERGED.

 AVERAGE FORCE                       35.7       TIME AVG. FORCE        18.5    
 LARGEST RESIDUAL FORCE             -9.27       AT NODE       3163   DOF  2
   INSTANCE: PART-2-1                                                                        
 LARGEST INCREMENT OF DISP.        -2.580E-06   AT NODE       1072   DOF  2
   INSTANCE: PART-2-1                                                                        
 LARGEST CORRECTION TO DISP.       -1.451E-07   AT NODE       3157   DOF  2
   INSTANCE: PART-2-1                                                                        
          FORCE     EQUILIBRIUM NOT ACHIEVED WITHIN TOLERANCE.

  NUMBER OF EQUATIONS =     22656     NUMBER OF RHS =    1
  NUMBER OF FLOATING PT. OPERATIONS =  1.87E+10

     CHECK POINT   START OF SOLVER    

     CHECK POINT  END OF SOLVER       

       ELAPSED USER TIME (SEC)      =   8.3000    
       ELAPSED SYSTEM TIME (SEC)    =  0.20000    
       ELAPSED TOTAL CPU TIME (SEC) =   8.5000    
       ELAPSED WALLCLOCK TIME (SEC) =          9

                    8 SEVERE DISCONTINUITIES OCCURRED DURING THIS ITERATION.
                    8 POINTS CHANGED FROM CLOSED TO OPEN

               CONVERGENCE CHECKS FOR SEVERE DISCONTINUITY ITERATION     2

   MAX. PENETRATION ERROR 1.02059E-15 AT NODE PART-1-1.1680 OF CONTACT PAIR 
   (ASSEMBLY_S_SURF-23,ASSEMBLY_M_SURF-23)
   MAX. CONTACT FORCE ERROR -51.9050E-06  AT NODE PART-1-1.1051 OF CONTACT PAIR 
   (ASSEMBLY_S_SURF-23,ASSEMBLY_M_SURF-23)
          THE CONTACT CONSTRAINT ERRORS ARE WITHIN THE TOLERANCES.

 AVERAGE FORCE                       35.7       TIME AVG. FORCE        18.5    
 LARGEST RESIDUAL FORCE             0.364       AT NODE       3155   DOF  3
   INSTANCE: PART-2-1                                                                        
 LARGEST INCREMENT OF DISP.        -2.583E-06   AT NODE       1072   DOF  2
   INSTANCE: PART-2-1                                                                        
 LARGEST CORRECTION TO DISP.       -5.352E-09   AT NODE       3171   DOF  2
   INSTANCE: PART-2-1                                                                        
          FORCE     EQUILIBRIUM NOT ACHIEVED WITHIN TOLERANCE.

  NUMBER OF EQUATIONS =     22656     NUMBER OF RHS =    1
  NUMBER OF FLOATING PT. OPERATIONS =  1.87E+10

     CHECK POINT   START OF SOLVER    

     CHECK POINT  END OF SOLVER       

       ELAPSED USER TIME (SEC)      =   7.3000    
       ELAPSED SYSTEM TIME (SEC)    =  0.10000    
       ELAPSED TOTAL CPU TIME (SEC) =   7.4000    
       ELAPSED WALLCLOCK TIME (SEC) =          8

                    8 SEVERE DISCONTINUITIES OCCURRED DURING THIS ITERATION.
                    8 POINTS CHANGED FROM OPEN TO CLOSED

               CONVERGENCE CHECKS FOR SEVERE DISCONTINUITY ITERATION     3

   MAX. PENETRATION ERROR 4.71220E-15 AT NODE PART-1-1.90 OF CONTACT PAIR 
   (ASSEMBLY_S_SURF-23,ASSEMBLY_M_SURF-23)
   MAX. CONTACT FORCE ERROR 71.3971E-09  AT NODE PART-1-1.90 OF CONTACT PAIR 
   (ASSEMBLY_S_SURF-23,ASSEMBLY_M_SURF-23)
          THE CONTACT CONSTRAINT ERRORS ARE WITHIN THE TOLERANCES.

 AVERAGE FORCE                       35.7       TIME AVG. FORCE        18.5    
 LARGEST RESIDUAL FORCE             1.877E-02   AT NODE       3156   DOF  2
   INSTANCE: PART-2-1                                                                        
 LARGEST INCREMENT OF DISP.        -2.583E-06   AT NODE       1072   DOF  2
   INSTANCE: PART-2-1                                                                        
 LARGEST CORRECTION TO DISP.       -1.713E-10   AT NODE       3163   DOF  2
   INSTANCE: PART-2-1                                                                        
          THE FORCE     EQUILIBRIUM EQUATIONS HAVE CONVERGED
          TIME INCREMENT MAY NOW INCREASE TO    3.375E-02

 ITERATION SUMMARY FOR THE INCREMENT:   4 TOTAL ITERATIONS, OF WHICH
   3 ARE SEVERE DISCONTINUITY ITERATIONS AND  1 ARE EQUILIBRIUM ITERATIONS.

 TIME INCREMENT COMPLETED  2.250E-02,  FRACTION OF STEP COMPLETED  5.750E-02
 STEP TIME COMPLETED       5.750E-02,  TOTAL TIME COMPLETED        5.750E-02


  INCREMENT     5 STARTS. ATTEMPT NUMBER  1, TIME INCREMENT  3.375E-02

  NUMBER OF EQUATIONS =     22656     NUMBER OF RHS =    1
  NUMBER OF FLOATING PT. OPERATIONS =  1.87E+10

     CHECK POINT   START OF SOLVER    

     CHECK POINT  END OF SOLVER       

       ELAPSED USER TIME (SEC)      =   7.5000    
       ELAPSED SYSTEM TIME (SEC)    =   0.0000    
       ELAPSED TOTAL CPU TIME (SEC) =   7.5000    
       ELAPSED WALLCLOCK TIME (SEC) =          7

                   56 SEVERE DISCONTINUITIES OCCURRED DURING THIS ITERATION.
                   32 POINTS CHANGED FROM OPEN TO CLOSED
                   24 POINTS CHANGED FROM CLOSED TO OPEN

               CONVERGENCE CHECKS FOR SEVERE DISCONTINUITY ITERATION     1

   MAX. PENETRATION ERROR 60.2388E-12  AT NODE PART-1-1.1317 OF CONTACT PAIR 
   (ASSEMBLY_S_SURF-23,ASSEMBLY_M_SURF-23)
   MAX. CONTACT FORCE ERROR -30.8445E-03  AT NODE PART-1-1.271 OF CONTACT PAIR 
   (ASSEMBLY_S_SURF-23,ASSEMBLY_M_SURF-23)
          THE CONTACT CONSTRAINT ERRORS ARE WITHIN THE TOLERANCES.

 AVERAGE FORCE                       60.0       TIME AVG. FORCE        26.8    
 LARGEST RESIDUAL FORCE              158.       AT NODE       1249   DOF  1
   INSTANCE: PART-2-1                                                                        
 LARGEST INCREMENT OF DISP.        -5.407E-06   AT NODE       1072   DOF  2
   INSTANCE: PART-2-1                                                                        
 LARGEST CORRECTION TO DISP.       -1.533E-06   AT NODE       1072   DOF  2
   INSTANCE: PART-2-1                                                                        
          FORCE     EQUILIBRIUM NOT ACHIEVED WITHIN TOLERANCE.

  NUMBER OF EQUATIONS =     22656     NUMBER OF RHS =    1
  NUMBER OF FLOATING PT. OPERATIONS =  1.87E+10

     CHECK POINT   START OF SOLVER    

     CHECK POINT  END OF SOLVER       

       ELAPSED USER TIME (SEC)      =   7.3000    
       ELAPSED SYSTEM TIME (SEC)    =  0.10000    
       ELAPSED TOTAL CPU TIME (SEC) =   7.4000    
       ELAPSED WALLCLOCK TIME (SEC) =          8

                    4 SEVERE DISCONTINUITIES OCCURRED DURING THIS ITERATION.
                    4 POINTS CHANGED FROM OPEN TO CLOSED

               CONVERGENCE CHECKS FOR SEVERE DISCONTINUITY ITERATION     2

   MAX. PENETRATION ERROR 8.48955E-12 AT NODE PART-1-1.1101 OF CONTACT PAIR 
   (ASSEMBLY_S_SURF-23,ASSEMBLY_M_SURF-23)
   MAX. CONTACT FORCE ERROR 271.551E-06   AT NODE PART-1-1.1101 OF CONTACT PAIR 
   (ASSEMBLY_S_SURF-23,ASSEMBLY_M_SURF-23)
          THE CONTACT CONSTRAINT ERRORS ARE WITHIN THE TOLERANCES.

 AVERAGE FORCE                       60.2       TIME AVG. FORCE        26.9    
 LARGEST RESIDUAL FORCE              68.3       AT NODE       2635   DOF  2
   INSTANCE: PART-2-1                                                                        
 LARGEST INCREMENT OF DISP.        -5.442E-06   AT NODE       1072   DOF  2
   INSTANCE: PART-2-1                                                                        
 LARGEST CORRECTION TO DISP.        5.776E-07   AT NODE        427   DOF  3
   INSTANCE: PART-1-1                                                                        
          FORCE     EQUILIBRIUM NOT ACHIEVED WITHIN TOLERANCE.

  NUMBER OF EQUATIONS =     22656     NUMBER OF RHS =    1
  NUMBER OF FLOATING PT. OPERATIONS =  1.87E+10

     CHECK POINT   START OF SOLVER    

     CHECK POINT  END OF SOLVER       

       ELAPSED USER TIME (SEC)      =   7.3000    
       ELAPSED SYSTEM TIME (SEC)    =   0.0000    
       ELAPSED TOTAL CPU TIME (SEC) =   7.3000    
       ELAPSED WALLCLOCK TIME (SEC) =          8

                   24 SEVERE DISCONTINUITIES OCCURRED DURING THIS ITERATION.
                    8 POINTS CHANGED FROM OPEN TO CLOSED
                   16 POINTS CHANGED FROM CLOSED TO OPEN

               CONVERGENCE CHECKS FOR SEVERE DISCONTINUITY ITERATION     3

   MAX. PENETRATION ERROR 19.2887E-12  AT NODE PART-1-1.1116 OF CONTACT PAIR 
   (ASSEMBLY_S_SURF-23,ASSEMBLY_M_SURF-23)
   MAX. CONTACT FORCE ERROR -31.8986E-03  AT NODE PART-1-1.501 OF CONTACT PAIR 
   (ASSEMBLY_S_SURF-23,ASSEMBLY_M_SURF-23)
          THE CONTACT CONSTRAINT ERRORS ARE WITHIN THE TOLERANCES.

 AVERAGE FORCE                       60.1       TIME AVG. FORCE        26.9    
 LARGEST RESIDUAL FORCE              7.22       AT NODE        919   DOF  3
   INSTANCE: PART-2-1                                                                        
 LARGEST INCREMENT OF DISP.        -5.426E-06   AT NODE       1072   DOF  2
   INSTANCE: PART-2-1                                                                        
 LARGEST CORRECTION TO DISP.       -7.789E-08   AT NODE        426   DOF  2
   INSTANCE: PART-1-1                                                                        
          FORCE     EQUILIBRIUM NOT ACHIEVED WITHIN TOLERANCE.

  NUMBER OF EQUATIONS =     22656     NUMBER OF RHS =    1
  NUMBER OF FLOATING PT. OPERATIONS =  1.87E+10

     CHECK POINT   START OF SOLVER    

     CHECK POINT  END OF SOLVER       

       ELAPSED USER TIME (SEC)      =   7.8000    
       ELAPSED SYSTEM TIME (SEC)    =   0.0000    
       ELAPSED TOTAL CPU TIME (SEC) =   7.8000    
       ELAPSED WALLCLOCK TIME (SEC) =          8

               CONVERGENCE CHECKS FOR EQUILIBRIUM ITERATION     1

   MAX. PENETRATION ERROR -835.645E-18   AT NODE PART-1-1.1818 OF CONTACT PAIR 
   (ASSEMBLY_S_SURF-23,ASSEMBLY_M_SURF-23)
   MAX. CONTACT FORCE ERROR -25.9376E-09  AT NODE PART-1-1.1587 OF CONTACT PAIR 
   (ASSEMBLY_S_SURF-23,ASSEMBLY_M_SURF-23)
          THE CONTACT CONSTRAINTS HAVE CONVERGED.

 AVERAGE FORCE                       60.1       TIME AVG. FORCE        26.9    
 LARGEST RESIDUAL FORCE             -3.24       AT NODE        186   DOF  2
   INSTANCE: PART-2-1                                                                        
 LARGEST INCREMENT OF DISP.        -5.426E-06   AT NODE       1072   DOF  2
   INSTANCE: PART-2-1                                                                        
 LARGEST CORRECTION TO DISP.        6.516E-09   AT NODE          5   DOF  2
   INSTANCE: PART-2-1                                                                        
          FORCE     EQUILIBRIUM NOT ACHIEVED WITHIN TOLERANCE.

  NUMBER OF EQUATIONS =     22656     NUMBER OF RHS =    1
  NUMBER OF FLOATING PT. OPERATIONS =  1.87E+10

     CHECK POINT   START OF SOLVER    

     CHECK POINT  END OF SOLVER       

       ELAPSED USER TIME (SEC)      =   7.4000    
       ELAPSED SYSTEM TIME (SEC)    =  0.10000    
       ELAPSED TOTAL CPU TIME (SEC) =   7.5000    
       ELAPSED WALLCLOCK TIME (SEC) =          8

               CONVERGENCE CHECKS FOR EQUILIBRIUM ITERATION     2

   MAX. PENETRATION ERROR -948.468E-18   AT NODE PART-1-1.181 OF CONTACT PAIR 
   (ASSEMBLY_S_SURF-23,ASSEMBLY_M_SURF-23)
   MAX. CONTACT FORCE ERROR 30.4838E-09  AT NODE PART-1-1.1688 OF CONTACT PAIR 
   (ASSEMBLY_S_SURF-23,ASSEMBLY_M_SURF-23)
          THE CONTACT CONSTRAINTS HAVE CONVERGED.

 AVERAGE FORCE                       60.1       TIME AVG. FORCE        26.9    
 LARGEST RESIDUAL FORCE              3.04       AT NODE        186   DOF  2
   INSTANCE: PART-2-1                                                                        
 LARGEST INCREMENT OF DISP.        -5.426E-06   AT NODE       1072   DOF  2
   INSTANCE: PART-2-1                                                                        
 LARGEST CORRECTION TO DISP.       -2.925E-09   AT NODE       1113   DOF  1
   INSTANCE: PART-2-1                                                                        
          FORCE     EQUILIBRIUM NOT ACHIEVED WITHIN TOLERANCE.

  NUMBER OF EQUATIONS =     22656     NUMBER OF RHS =    1
  NUMBER OF FLOATING PT. OPERATIONS =  1.87E+10

     CHECK POINT   START OF SOLVER    

     CHECK POINT  END OF SOLVER       

       ELAPSED USER TIME (SEC)      =   7.4000    
       ELAPSED SYSTEM TIME (SEC)    =   0.0000    
       ELAPSED TOTAL CPU TIME (SEC) =   7.4000    
       ELAPSED WALLCLOCK TIME (SEC) =          8

               CONVERGENCE CHECKS FOR EQUILIBRIUM ITERATION     3

   MAX. PENETRATION ERROR -1.05475E-15 AT NODE PART-1-1.716 OF CONTACT PAIR 
   (ASSEMBLY_S_SURF-23,ASSEMBLY_M_SURF-23)
   MAX. CONTACT FORCE ERROR -32.8010E-09  AT NODE PART-1-1.1093 OF CONTACT PAIR 
   (ASSEMBLY_S_SURF-23,ASSEMBLY_M_SURF-23)
          THE CONTACT CONSTRAINTS HAVE CONVERGED.

 AVERAGE FORCE                       60.1       TIME AVG. FORCE        26.9    
 LARGEST RESIDUAL FORCE             -3.08       AT NODE        186   DOF  2
   INSTANCE: PART-2-1                                                                        
 LARGEST INCREMENT OF DISP.        -5.426E-06   AT NODE       1072   DOF  2
   INSTANCE: PART-2-1                                                                        
 LARGEST CORRECTION TO DISP.        2.776E-09   AT NODE       1113   DOF  1
   INSTANCE: PART-2-1                                                                        
          FORCE     EQUILIBRIUM NOT ACHIEVED WITHIN TOLERANCE.

  NUMBER OF EQUATIONS =     22656     NUMBER OF RHS =    1
  NUMBER OF FLOATING PT. OPERATIONS =  1.87E+10

     CHECK POINT   START OF SOLVER    

     CHECK POINT  END OF SOLVER       

       ELAPSED USER TIME (SEC)      =   7.5000    
       ELAPSED SYSTEM TIME (SEC)    =   0.0000    
       ELAPSED TOTAL CPU TIME (SEC) =   7.5000    
       ELAPSED WALLCLOCK TIME (SEC) =          9

               CONVERGENCE CHECKS FOR EQUILIBRIUM ITERATION     4

   MAX. PENETRATION ERROR 1.21795E-15 AT NODE PART-1-1.545 OF CONTACT PAIR 
   (ASSEMBLY_S_SURF-23,ASSEMBLY_M_SURF-23)
   MAX. CONTACT FORCE ERROR 38.9581E-09  AT NODE PART-1-1.545 OF CONTACT PAIR 
   (ASSEMBLY_S_SURF-23,ASSEMBLY_M_SURF-23)
          THE CONTACT CONSTRAINTS HAVE CONVERGED.

 AVERAGE FORCE                       60.1       TIME AVG. FORCE        26.9    
 LARGEST RESIDUAL FORCE              3.04       AT NODE        186   DOF  2
   INSTANCE: PART-2-1                                                                        
 LARGEST INCREMENT OF DISP.        -5.426E-06   AT NODE       1072   DOF  2
   INSTANCE: PART-2-1                                                                        
 LARGEST CORRECTION TO DISP.       -2.779E-09   AT NODE       1113   DOF  1
   INSTANCE: PART-2-1                                                                        
          FORCE     EQUILIBRIUM NOT ACHIEVED WITHIN TOLERANCE.

  NUMBER OF EQUATIONS =     22656     NUMBER OF RHS =    1
  NUMBER OF FLOATING PT. OPERATIONS =  1.87E+10

     CHECK POINT   START OF SOLVER    

     CHECK POINT  END OF SOLVER       

       ELAPSED USER TIME (SEC)      =   7.8000    
       ELAPSED SYSTEM TIME (SEC)    =   0.0000    
       ELAPSED TOTAL CPU TIME (SEC) =   7.8000    
       ELAPSED WALLCLOCK TIME (SEC) =          8

               CONVERGENCE CHECKS FOR EQUILIBRIUM ITERATION     5

   MAX. PENETRATION ERROR -1.23451E-15 AT NODE PART-1-1.545 OF CONTACT PAIR 
   (ASSEMBLY_S_SURF-23,ASSEMBLY_M_SURF-23)
   MAX. CONTACT FORCE ERROR -39.4877E-09  AT NODE PART-1-1.545 OF CONTACT PAIR 
   (ASSEMBLY_S_SURF-23,ASSEMBLY_M_SURF-23)
          THE CONTACT CONSTRAINTS HAVE CONVERGED.

 AVERAGE FORCE                       60.1       TIME AVG. FORCE        26.9    
 LARGEST RESIDUAL FORCE             -3.08       AT NODE        186   DOF  2
   INSTANCE: PART-2-1                                                                        
 LARGEST INCREMENT OF DISP.        -5.426E-06   AT NODE       1072   DOF  2
   INSTANCE: PART-2-1                                                                        
 LARGEST CORRECTION TO DISP.        2.779E-09   AT NODE       1113   DOF  1
   INSTANCE: PART-2-1                                                                        
          FORCE     EQUILIBRIUM NOT ACHIEVED WITHIN TOLERANCE.
 

 ***NOTE: THE SOLUTION APPEARS TO BE DIVERGING. CONVERGENCE IS JUDGED UNLIKELY.


  INCREMENT     5 STARTS. ATTEMPT NUMBER  2, TIME INCREMENT  8.438E-03

  NUMBER OF EQUATIONS =     22656     NUMBER OF RHS =    1
  NUMBER OF FLOATING PT. OPERATIONS =  1.87E+10

     CHECK POINT   START OF SOLVER    

     CHECK POINT  END OF SOLVER       

       ELAPSED USER TIME (SEC)      =   7.4000    
       ELAPSED SYSTEM TIME (SEC)    =   0.0000    
       ELAPSED TOTAL CPU TIME (SEC) =   7.4000    
       ELAPSED WALLCLOCK TIME (SEC) =          8

                   56 SEVERE DISCONTINUITIES OCCURRED DURING THIS ITERATION.
                   32 POINTS CHANGED FROM OPEN TO CLOSED
                   24 POINTS CHANGED FROM CLOSED TO OPEN

               CONVERGENCE CHECKS FOR SEVERE DISCONTINUITY ITERATION     1

   MAX. PENETRATION ERROR 34.2328E-12  AT NODE PART-1-1.1317 OF CONTACT PAIR 
   (ASSEMBLY_S_SURF-23,ASSEMBLY_M_SURF-23)
   MAX. CONTACT FORCE ERROR -17.5032E-03  AT NODE PART-1-1.271 OF CONTACT PAIR 
   (ASSEMBLY_S_SURF-23,ASSEMBLY_M_SURF-23)
          THE CONTACT CONSTRAINT ERRORS ARE WITHIN THE TOLERANCES.

 AVERAGE FORCE                       41.7       TIME AVG. FORCE        23.2    
 LARGEST RESIDUAL FORCE             -14.2       AT NODE        211   DOF  2
   INSTANCE: PART-2-1                                                                        
 LARGEST INCREMENT OF DISP.        -1.199E-06   AT NODE       1072   DOF  2
   INSTANCE: PART-2-1                                                                        
 LARGEST CORRECTION TO DISP.       -2.302E-07   AT NODE       1072   DOF  2
   INSTANCE: PART-2-1                                                                        
          FORCE     EQUILIBRIUM NOT ACHIEVED WITHIN TOLERANCE.

  NUMBER OF EQUATIONS =     22656     NUMBER OF RHS =    1
  NUMBER OF FLOATING PT. OPERATIONS =  1.87E+10

     CHECK POINT   START OF SOLVER    

     CHECK POINT  END OF SOLVER       

       ELAPSED USER TIME (SEC)      =   7.8000    
       ELAPSED SYSTEM TIME (SEC)    =  0.10000    
       ELAPSED TOTAL CPU TIME (SEC) =   7.9000    
       ELAPSED WALLCLOCK TIME (SEC) =          9

                   16 SEVERE DISCONTINUITIES OCCURRED DURING THIS ITERATION.
                    8 POINTS CHANGED FROM OPEN TO CLOSED
                    8 POINTS CHANGED FROM CLOSED TO OPEN

               CONVERGENCE CHECKS FOR SEVERE DISCONTINUITY ITERATION     2

   MAX. PENETRATION ERROR 31.9853E-12  AT NODE PART-1-1.1311 OF CONTACT PAIR 
   (ASSEMBLY_S_SURF-23,ASSEMBLY_M_SURF-23)
   MAX. CONTACT FORCE ERROR 996.176E-06   AT NODE PART-1-1.1311 OF CONTACT PAIR 
   (ASSEMBLY_S_SURF-23,ASSEMBLY_M_SURF-23)
          THE CONTACT CONSTRAINT ERRORS ARE WITHIN THE TOLERANCES.

 AVERAGE FORCE                       41.8       TIME AVG. FORCE        23.2    
 LARGEST RESIDUAL FORCE              3.55       AT NODE       3924   DOF  2
   INSTANCE: PART-2-1                                                                        
 LARGEST INCREMENT OF DISP.        -1.209E-06   AT NODE       1072   DOF  2
   INSTANCE: PART-2-1                                                                        
 LARGEST CORRECTION TO DISP.        5.592E-08   AT NODE        427   DOF  3
   INSTANCE: PART-1-1                                                                        
          FORCE     EQUILIBRIUM NOT ACHIEVED WITHIN TOLERANCE.

  NUMBER OF EQUATIONS =     22656     NUMBER OF RHS =    1
  NUMBER OF FLOATING PT. OPERATIONS =  1.87E+10

     CHECK POINT   START OF SOLVER    

     CHECK POINT  END OF SOLVER       

       ELAPSED USER TIME (SEC)      =   7.6000    
       ELAPSED SYSTEM TIME (SEC)    =  0.10000    
       ELAPSED TOTAL CPU TIME (SEC) =   7.7000    
       ELAPSED WALLCLOCK TIME (SEC) =          9

               CONVERGENCE CHECKS FOR EQUILIBRIUM ITERATION     1

   MAX. PENETRATION ERROR 950.109E-18   AT NODE PART-1-1.510 OF CONTACT PAIR 
   (ASSEMBLY_S_SURF-23,ASSEMBLY_M_SURF-23)
   MAX. CONTACT FORCE ERROR 31.1905E-09  AT NODE PART-1-1.510 OF CONTACT PAIR 
   (ASSEMBLY_S_SURF-23,ASSEMBLY_M_SURF-23)
          THE CONTACT CONSTRAINTS HAVE CONVERGED.

 AVERAGE FORCE                       41.8       TIME AVG. FORCE        23.2    
 LARGEST RESIDUAL FORCE            -1.868E-02   AT NODE       3355   DOF  1
   INSTANCE: PART-2-1                                                                        
 LARGEST INCREMENT OF DISP.        -1.209E-06   AT NODE       1072   DOF  2
   INSTANCE: PART-2-1                                                                        
 LARGEST CORRECTION TO DISP.       -2.682E-09   AT NODE        422   DOF  2
   INSTANCE: PART-1-1                                                                        
          THE FORCE     EQUILIBRIUM EQUATIONS HAVE CONVERGED
          TIME INCREMENT MAY NOW INCREASE TO    1.266E-02

 ITERATION SUMMARY FOR THE INCREMENT:   3 TOTAL ITERATIONS, OF WHICH
   2 ARE SEVERE DISCONTINUITY ITERATIONS AND  1 ARE EQUILIBRIUM ITERATIONS.

 TIME INCREMENT COMPLETED  8.438E-03,  FRACTION OF STEP COMPLETED  6.594E-02
 STEP TIME COMPLETED       6.594E-02,  TOTAL TIME COMPLETED        6.594E-02


  INCREMENT     6 STARTS. ATTEMPT NUMBER  1, TIME INCREMENT  1.266E-02

                   28 SEVERE DISCONTINUITIES OCCURRED DURING INCREMENT ATTEMPT INITIALIZATION.
                   28 POINTS CHANGED TO SLIPPING WITH NEGATIVE CPRESS

  NUMBER OF EQUATIONS =     22656     NUMBER OF RHS =    1
  NUMBER OF FLOATING PT. OPERATIONS =  1.87E+10

     CHECK POINT   START OF SOLVER    

     CHECK POINT  END OF SOLVER       

       ELAPSED USER TIME (SEC)      =   8.0000    
       ELAPSED SYSTEM TIME (SEC)    =   0.0000    
       ELAPSED TOTAL CPU TIME (SEC) =   8.0000    
       ELAPSED WALLCLOCK TIME (SEC) =          9

                   44 SEVERE DISCONTINUITIES OCCURRED DURING THIS ITERATION.
                   16 POINTS CHANGED FROM OPEN TO CLOSED
                   28 POINTS CHANGED FROM CLOSED TO OPEN

               CONVERGENCE CHECKS FOR SEVERE DISCONTINUITY ITERATION     1

   MAX. PENETRATION ERROR 40.6008E-12  AT NODE PART-1-1.273 OF CONTACT PAIR 
   (ASSEMBLY_S_SURF-23,ASSEMBLY_M_SURF-23)
   MAX. CONTACT FORCE ERROR -46.5713E-03  AT NODE PART-1-1.525 OF CONTACT PAIR 
   (ASSEMBLY_S_SURF-23,ASSEMBLY_M_SURF-23)
          THE CONTACT CONSTRAINT ERRORS ARE WITHIN THE TOLERANCES.

 AVERAGE FORCE                       51.1       TIME AVG. FORCE        27.8    
 LARGEST RESIDUAL FORCE             -24.4       AT NODE       1128   DOF  2
   INSTANCE: PART-2-1                                                                        
 LARGEST INCREMENT OF DISP.        -2.027E-06   AT NODE       1072   DOF  2
   INSTANCE: PART-2-1                                                                        
 LARGEST CORRECTION TO DISP.       -2.657E-07   AT NODE       3205   DOF  2
   INSTANCE: PART-2-1                                                                        
          FORCE     EQUILIBRIUM NOT ACHIEVED WITHIN TOLERANCE.

  NUMBER OF EQUATIONS =     22656     NUMBER OF RHS =    1
  NUMBER OF FLOATING PT. OPERATIONS =  1.87E+10

     CHECK POINT   START OF SOLVER    

     CHECK POINT  END OF SOLVER       

       ELAPSED USER TIME (SEC)      =   8.0000    
       ELAPSED SYSTEM TIME (SEC)    =  0.10000    
       ELAPSED TOTAL CPU TIME (SEC) =   8.1000    
       ELAPSED WALLCLOCK TIME (SEC) =          9

                   16 SEVERE DISCONTINUITIES OCCURRED DURING THIS ITERATION.
                    8 POINTS CHANGED FROM OPEN TO CLOSED
                    8 POINTS CHANGED FROM CLOSED TO OPEN

               CONVERGENCE CHECKS FOR SEVERE DISCONTINUITY ITERATION     2

   MAX. PENETRATION ERROR 5.95780E-12 AT NODE PART-1-1.1347 OF CONTACT PAIR 
   (ASSEMBLY_S_SURF-23,ASSEMBLY_M_SURF-23)
   MAX. CONTACT FORCE ERROR -642.536E-06   AT NODE PART-1-1.1309 OF CONTACT 
   PAIR (ASSEMBLY_S_SURF-23,ASSEMBLY_M_SURF-23)
          THE CONTACT CONSTRAINT ERRORS ARE WITHIN THE TOLERANCES.

 AVERAGE FORCE                       51.0       TIME AVG. FORCE        27.8    
 LARGEST RESIDUAL FORCE             -2.44       AT NODE       1129   DOF  1
   INSTANCE: PART-2-1                                                                        
 LARGEST INCREMENT OF DISP.        -2.017E-06   AT NODE       1072   DOF  2
   INSTANCE: PART-2-1                                                                        
 LARGEST CORRECTION TO DISP.        3.962E-08   AT NODE        421   DOF  3
   INSTANCE: PART-1-1                                                                        
          FORCE     EQUILIBRIUM NOT ACHIEVED WITHIN TOLERANCE.

  NUMBER OF EQUATIONS =     22656     NUMBER OF RHS =    1
  NUMBER OF FLOATING PT. OPERATIONS =  1.87E+10

     CHECK POINT   START OF SOLVER    

     CHECK POINT  END OF SOLVER       

       ELAPSED USER TIME (SEC)      =   7.5000    
       ELAPSED SYSTEM TIME (SEC)    =  0.10000    
       ELAPSED TOTAL CPU TIME (SEC) =   7.6000    
       ELAPSED WALLCLOCK TIME (SEC) =          8

               CONVERGENCE CHECKS FOR EQUILIBRIUM ITERATION     1

   MAX. PENETRATION ERROR -866.413E-18   AT NODE PART-1-1.1713 OF CONTACT PAIR 
   (ASSEMBLY_S_SURF-23,ASSEMBLY_M_SURF-23)
   MAX. CONTACT FORCE ERROR -30.6507E-09  AT NODE PART-1-1.1580 OF CONTACT PAIR 
   (ASSEMBLY_S_SURF-23,ASSEMBLY_M_SURF-23)
          THE CONTACT CONSTRAINTS HAVE CONVERGED.

 AVERAGE FORCE                       51.0       TIME AVG. FORCE        27.8    
 LARGEST RESIDUAL FORCE            -4.603E-02   AT NODE        694   DOF  1
   INSTANCE: PART-2-1                                                                        
 LARGEST INCREMENT OF DISP.        -2.017E-06   AT NODE       1072   DOF  2
   INSTANCE: PART-2-1                                                                        
 LARGEST CORRECTION TO DISP.       -1.783E-09   AT NODE        411   DOF  1
   INSTANCE: PART-2-1                                                                        
          THE FORCE     EQUILIBRIUM EQUATIONS HAVE CONVERGED
          TIME INCREMENT MAY NOW INCREASE TO    1.898E-02

 ITERATION SUMMARY FOR THE INCREMENT:   3 TOTAL ITERATIONS, OF WHICH
   2 ARE SEVERE DISCONTINUITY ITERATIONS AND  1 ARE EQUILIBRIUM ITERATIONS.

 TIME INCREMENT COMPLETED  1.266E-02,  FRACTION OF STEP COMPLETED  7.859E-02
 STEP TIME COMPLETED       7.859E-02,  TOTAL TIME COMPLETED        7.859E-02


  INCREMENT     7 STARTS. ATTEMPT NUMBER  1, TIME INCREMENT  1.898E-02

                   24 SEVERE DISCONTINUITIES OCCURRED DURING INCREMENT ATTEMPT INITIALIZATION.
                   24 POINTS CHANGED TO SLIPPING WITH NEGATIVE CPRESS

  NUMBER OF EQUATIONS =     22656     NUMBER OF RHS =    1
  NUMBER OF FLOATING PT. OPERATIONS =  1.87E+10

     CHECK POINT   START OF SOLVER    

     CHECK POINT  END OF SOLVER       

       ELAPSED USER TIME (SEC)      =   7.6000    
       ELAPSED SYSTEM TIME (SEC)    =  0.10000    
       ELAPSED TOTAL CPU TIME (SEC) =   7.7000    
       ELAPSED WALLCLOCK TIME (SEC) =          8

                   72 SEVERE DISCONTINUITIES OCCURRED DURING THIS ITERATION.
                   24 POINTS CHANGED FROM OPEN TO CLOSED
                   24 POINTS CHANGED FROM CLOSED TO OPEN
                   24 POINTS CHANGED FROM SLIPPING TO STICKING

               CONVERGENCE CHECKS FOR SEVERE DISCONTINUITY ITERATION     1

   MAX. PENETRATION ERROR 471.620E-12   AT NODE PART-1-1.1101 OF CONTACT PAIR 
   (ASSEMBLY_S_SURF-23,ASSEMBLY_M_SURF-23)
   MAX. CONTACT FORCE ERROR -69.5965E-03  AT NODE PART-1-1.1037 OF CONTACT PAIR 
   (ASSEMBLY_S_SURF-23,ASSEMBLY_M_SURF-23)
          THE CONTACT CONSTRAINT ERRORS ARE WITHIN THE TOLERANCES.

 AVERAGE FORCE                       65.6       TIME AVG. FORCE        33.2    
 LARGEST RESIDUAL FORCE             -61.9       AT NODE       3488   DOF  1
   INSTANCE: PART-2-1                                                                        
 LARGEST INCREMENT OF DISP.        -3.355E-06   AT NODE       1075   DOF  2
   INSTANCE: PART-2-1                                                                        
 LARGEST CORRECTION TO DISP.       -3.970E-07   AT NODE       1070   DOF  2
   INSTANCE: PART-2-1                                                                        
          FORCE     EQUILIBRIUM NOT ACHIEVED WITHIN TOLERANCE.

  NUMBER OF EQUATIONS =     22656     NUMBER OF RHS =    1
  NUMBER OF FLOATING PT. OPERATIONS =  1.87E+10

     CHECK POINT   START OF SOLVER    

     CHECK POINT  END OF SOLVER       

       ELAPSED USER TIME (SEC)      =   7.6000    
       ELAPSED SYSTEM TIME (SEC)    =  0.10000    
       ELAPSED TOTAL CPU TIME (SEC) =   7.7000    
       ELAPSED WALLCLOCK TIME (SEC) =          8

                   12 SEVERE DISCONTINUITIES OCCURRED DURING THIS ITERATION.
                   12 POINTS CHANGED FROM OPEN TO CLOSED

               CONVERGENCE CHECKS FOR SEVERE DISCONTINUITY ITERATION     2

   MAX. PENETRATION ERROR 6.13442E-12 AT NODE PART-1-1.530 OF CONTACT PAIR 
   (ASSEMBLY_S_SURF-23,ASSEMBLY_M_SURF-23)
   MAX. CONTACT FORCE ERROR 253.019E-06   AT NODE PART-1-1.530 OF CONTACT PAIR 
   (ASSEMBLY_S_SURF-23,ASSEMBLY_M_SURF-23)
          THE CONTACT CONSTRAINT ERRORS ARE WITHIN THE TOLERANCES.

 AVERAGE FORCE                       65.6       TIME AVG. FORCE        33.2    
 LARGEST RESIDUAL FORCE              3.39       AT NODE         91   DOF  3
   INSTANCE: PART-2-1                                                                        
 LARGEST INCREMENT OF DISP.        -3.375E-06   AT NODE       1075   DOF  2
   INSTANCE: PART-2-1                                                                        
 LARGEST CORRECTION TO DISP.       -4.841E-08   AT NODE       1078   DOF  2
   INSTANCE: PART-2-1                                                                        
          FORCE     EQUILIBRIUM NOT ACHIEVED WITHIN TOLERANCE.

  NUMBER OF EQUATIONS =     22656     NUMBER OF RHS =    1
  NUMBER OF FLOATING PT. OPERATIONS =  1.87E+10

     CHECK POINT   START OF SOLVER    

     CHECK POINT  END OF SOLVER       

       ELAPSED USER TIME (SEC)      =   8.1000    
       ELAPSED SYSTEM TIME (SEC)    =  0.10000    
       ELAPSED TOTAL CPU TIME (SEC) =   8.2000    
       ELAPSED WALLCLOCK TIME (SEC) =          8

               CONVERGENCE CHECKS FOR EQUILIBRIUM ITERATION     1

   MAX. PENETRATION ERROR 1.07631E-15 AT NODE PART-1-1.739 OF CONTACT PAIR 
   (ASSEMBLY_S_SURF-23,ASSEMBLY_M_SURF-23)
   MAX. CONTACT FORCE ERROR 32.2101E-09  AT NODE PART-1-1.1300 OF CONTACT PAIR 
   (ASSEMBLY_S_SURF-23,ASSEMBLY_M_SURF-23)
          THE CONTACT CONSTRAINTS HAVE CONVERGED.

 AVERAGE FORCE                       65.6       TIME AVG. FORCE        33.2    
 LARGEST RESIDUAL FORCE             -3.98       AT NODE         91   DOF  3
   INSTANCE: PART-2-1                                                                        
 LARGEST INCREMENT OF DISP.        -3.375E-06   AT NODE       1075   DOF  2
   INSTANCE: PART-2-1                                                                        
 LARGEST CORRECTION TO DISP.       -2.878E-09   AT NODE        687   DOF  2
   INSTANCE: PART-2-1                                                                        
          FORCE     EQUILIBRIUM NOT ACHIEVED WITHIN TOLERANCE.

  NUMBER OF EQUATIONS =     22656     NUMBER OF RHS =    1
  NUMBER OF FLOATING PT. OPERATIONS =  1.87E+10

     CHECK POINT   START OF SOLVER    

     CHECK POINT  END OF SOLVER       

       ELAPSED USER TIME (SEC)      =   7.9000    
       ELAPSED SYSTEM TIME (SEC)    =  0.20000    
       ELAPSED TOTAL CPU TIME (SEC) =   8.1000    
       ELAPSED WALLCLOCK TIME (SEC) =          9

               CONVERGENCE CHECKS FOR EQUILIBRIUM ITERATION     2

   MAX. PENETRATION ERROR -1.19927E-15 AT NODE PART-1-1.1300 OF CONTACT PAIR 
   (ASSEMBLY_S_SURF-23,ASSEMBLY_M_SURF-23)
   MAX. CONTACT FORCE ERROR -42.3983E-09  AT NODE PART-1-1.1300 OF CONTACT PAIR 
   (ASSEMBLY_S_SURF-23,ASSEMBLY_M_SURF-23)
          THE CONTACT CONSTRAINTS HAVE CONVERGED.

 AVERAGE FORCE                       65.6       TIME AVG. FORCE        33.2    
 LARGEST RESIDUAL FORCE             -4.02       AT NODE        185   DOF  3
   INSTANCE: PART-2-1                                                                        
 LARGEST INCREMENT OF DISP.        -3.375E-06   AT NODE       1075   DOF  2
   INSTANCE: PART-2-1                                                                        
 LARGEST CORRECTION TO DISP.       -2.799E-09   AT NODE        184   DOF  2
   INSTANCE: PART-2-1                                                                        
          FORCE     EQUILIBRIUM NOT ACHIEVED WITHIN TOLERANCE.

  NUMBER OF EQUATIONS =     22656     NUMBER OF RHS =    1
  NUMBER OF FLOATING PT. OPERATIONS =  1.87E+10

     CHECK POINT   START OF SOLVER    

     CHECK POINT  END OF SOLVER       

       ELAPSED USER TIME (SEC)      =   7.5000    
       ELAPSED SYSTEM TIME (SEC)    =  0.10000    
       ELAPSED TOTAL CPU TIME (SEC) =   7.6000    
       ELAPSED WALLCLOCK TIME (SEC) =          8

               CONVERGENCE CHECKS FOR EQUILIBRIUM ITERATION     3

   MAX. PENETRATION ERROR 1.07800E-15 AT NODE PART-1-1.1710 OF CONTACT PAIR 
   (ASSEMBLY_S_SURF-23,ASSEMBLY_M_SURF-23)
   MAX. CONTACT FORCE ERROR 31.1112E-09  AT NODE PART-1-1.1710 OF CONTACT PAIR 
   (ASSEMBLY_S_SURF-23,ASSEMBLY_M_SURF-23)
          THE CONTACT CONSTRAINTS HAVE CONVERGED.

 AVERAGE FORCE                       65.6       TIME AVG. FORCE        33.2    
 LARGEST RESIDUAL FORCE              3.99       AT NODE        185   DOF  3
   INSTANCE: PART-2-1                                                                        
 LARGEST INCREMENT OF DISP.        -3.375E-06   AT NODE       1075   DOF  2
   INSTANCE: PART-2-1                                                                        
 LARGEST CORRECTION TO DISP.        2.787E-09   AT NODE        184   DOF  2
   INSTANCE: PART-2-1                                                                        
          FORCE     EQUILIBRIUM NOT ACHIEVED WITHIN TOLERANCE.

  NUMBER OF EQUATIONS =     22656     NUMBER OF RHS =    1
  NUMBER OF FLOATING PT. OPERATIONS =  1.87E+10

     CHECK POINT   START OF SOLVER    

     CHECK POINT  END OF SOLVER       

       ELAPSED USER TIME (SEC)      =   7.4000    
       ELAPSED SYSTEM TIME (SEC)    =   0.0000    
       ELAPSED TOTAL CPU TIME (SEC) =   7.4000    
       ELAPSED WALLCLOCK TIME (SEC) =          8

               CONVERGENCE CHECKS FOR EQUILIBRIUM ITERATION     4

   MAX. PENETRATION ERROR -1.14127E-15 AT NODE PART-1-1.1821 OF CONTACT PAIR 
   (ASSEMBLY_S_SURF-23,ASSEMBLY_M_SURF-23)
   MAX. CONTACT FORCE ERROR -38.0894E-09  AT NODE PART-1-1.1822 OF CONTACT PAIR 
   (ASSEMBLY_S_SURF-23,ASSEMBLY_M_SURF-23)
          THE CONTACT CONSTRAINTS HAVE CONVERGED.

 AVERAGE FORCE                       65.6       TIME AVG. FORCE        33.2    
 LARGEST RESIDUAL FORCE             -4.02       AT NODE        185   DOF  3
   INSTANCE: PART-2-1                                                                        
 LARGEST INCREMENT OF DISP.        -3.375E-06   AT NODE       1075   DOF  2
   INSTANCE: PART-2-1                                                                        
 LARGEST CORRECTION TO DISP.       -2.786E-09   AT NODE        184   DOF  2
   INSTANCE: PART-2-1                                                                        
          FORCE     EQUILIBRIUM NOT ACHIEVED WITHIN TOLERANCE.
 

 ***NOTE: THE SOLUTION APPEARS TO BE DIVERGING. CONVERGENCE IS JUDGED UNLIKELY.


  INCREMENT     7 STARTS. ATTEMPT NUMBER  2, TIME INCREMENT  4.746E-03

  NUMBER OF EQUATIONS =     22656     NUMBER OF RHS =    1
  NUMBER OF FLOATING PT. OPERATIONS =  1.87E+10

     CHECK POINT   START OF SOLVER    

     CHECK POINT  END OF SOLVER       

       ELAPSED USER TIME (SEC)      =   7.3000    
       ELAPSED SYSTEM TIME (SEC)    =   0.0000    
       ELAPSED TOTAL CPU TIME (SEC) =   7.3000    
       ELAPSED WALLCLOCK TIME (SEC) =          8

                   16 SEVERE DISCONTINUITIES OCCURRED DURING THIS ITERATION.
                    8 POINTS CHANGED FROM OPEN TO CLOSED
                    8 POINTS CHANGED FROM CLOSED TO OPEN

               CONVERGENCE CHECKS FOR SEVERE DISCONTINUITY ITERATION     1

   MAX. PENETRATION ERROR 3.28497E-12 AT NODE PART-1-1.523 OF CONTACT PAIR 
   (ASSEMBLY_S_SURF-23,ASSEMBLY_M_SURF-23)
   MAX. CONTACT FORCE ERROR -2.98971E-03 AT NODE PART-1-1.1307 OF CONTACT PAIR 
   (ASSEMBLY_S_SURF-23,ASSEMBLY_M_SURF-23)
          THE CONTACT CONSTRAINT ERRORS ARE WITHIN THE TOLERANCES.

 AVERAGE FORCE                       54.7       TIME AVG. FORCE        31.7    
 LARGEST RESIDUAL FORCE             -2.35       AT NODE       3162   DOF  2
   INSTANCE: PART-2-1                                                                        
 LARGEST INCREMENT OF DISP.        -8.091E-07   AT NODE       1072   DOF  2
   INSTANCE: PART-2-1                                                                        
 LARGEST CORRECTION TO DISP.       -6.511E-08   AT NODE       1070   DOF  2
   INSTANCE: PART-2-1                                                                        
          FORCE     EQUILIBRIUM NOT ACHIEVED WITHIN TOLERANCE.

  NUMBER OF EQUATIONS =     22656     NUMBER OF RHS =    1
  NUMBER OF FLOATING PT. OPERATIONS =  1.87E+10

     CHECK POINT   START OF SOLVER    

     CHECK POINT  END OF SOLVER       

       ELAPSED USER TIME (SEC)      =   7.5000    
       ELAPSED SYSTEM TIME (SEC)    =   0.0000    
       ELAPSED TOTAL CPU TIME (SEC) =   7.5000    
       ELAPSED WALLCLOCK TIME (SEC) =          8

                    8 SEVERE DISCONTINUITIES OCCURRED DURING THIS ITERATION.
                    8 POINTS CHANGED FROM CLOSED TO OPEN

               CONVERGENCE CHECKS FOR SEVERE DISCONTINUITY ITERATION     2

   MAX. PENETRATION ERROR -900.686E-18   AT NODE PART-1-1.550 OF CONTACT PAIR 
   (ASSEMBLY_S_SURF-23,ASSEMBLY_M_SURF-23)
   MAX. CONTACT FORCE ERROR -96.5542E-06  AT NODE PART-1-1.385 OF CONTACT PAIR 
   (ASSEMBLY_S_SURF-23,ASSEMBLY_M_SURF-23)
          THE CONTACT CONSTRAINT ERRORS ARE WITHIN THE TOLERANCES.

 AVERAGE FORCE                       54.7       TIME AVG. FORCE        31.7    
 LARGEST RESIDUAL FORCE            -0.249       AT NODE       3153   DOF  2
   INSTANCE: PART-2-1                                                                        
 LARGEST INCREMENT OF DISP.        -8.098E-07   AT NODE       1072   DOF  2
   INSTANCE: PART-2-1                                                                        
 LARGEST CORRECTION TO DISP.       -2.266E-09   AT NODE       3131   DOF  2
   INSTANCE: PART-2-1                                                                        
          FORCE     EQUILIBRIUM NOT ACHIEVED WITHIN TOLERANCE.

  NUMBER OF EQUATIONS =     22656     NUMBER OF RHS =    1
  NUMBER OF FLOATING PT. OPERATIONS =  1.87E+10

     CHECK POINT   START OF SOLVER    

     CHECK POINT  END OF SOLVER       

       ELAPSED USER TIME (SEC)      =   7.5000    
       ELAPSED SYSTEM TIME (SEC)    =   0.0000    
       ELAPSED TOTAL CPU TIME (SEC) =   7.5000    
       ELAPSED WALLCLOCK TIME (SEC) =          7

               CONVERGENCE CHECKS FOR EQUILIBRIUM ITERATION     1

   MAX. PENETRATION ERROR -883.899E-18   AT NODE PART-1-1.1093 OF CONTACT PAIR 
   (ASSEMBLY_S_SURF-23,ASSEMBLY_M_SURF-23)
   MAX. CONTACT FORCE ERROR 28.7634E-09  AT NODE PART-1-1.1082 OF CONTACT PAIR 
   (ASSEMBLY_S_SURF-23,ASSEMBLY_M_SURF-23)
          THE CONTACT CONSTRAINTS HAVE CONVERGED.

 AVERAGE FORCE                       54.7       TIME AVG. FORCE        31.7    
 LARGEST RESIDUAL FORCE            -1.341E-03   AT NODE       3177   DOF  2
   INSTANCE: PART-2-1                                                                        
 LARGEST INCREMENT OF DISP.        -8.099E-07   AT NODE       1072   DOF  2
   INSTANCE: PART-2-1                                                                        
 LARGEST CORRECTION TO DISP.       -1.004E-10   AT NODE       3154   DOF  2
   INSTANCE: PART-2-1                                                                        
          THE FORCE     EQUILIBRIUM EQUATIONS HAVE CONVERGED
          TIME INCREMENT MAY NOW INCREASE TO    7.119E-03

 ITERATION SUMMARY FOR THE INCREMENT:   3 TOTAL ITERATIONS, OF WHICH
   2 ARE SEVERE DISCONTINUITY ITERATIONS AND  1 ARE EQUILIBRIUM ITERATIONS.

 TIME INCREMENT COMPLETED  4.746E-03,  FRACTION OF STEP COMPLETED  8.334E-02
 STEP TIME COMPLETED       8.334E-02,  TOTAL TIME COMPLETED        8.334E-02


  INCREMENT     8 STARTS. ATTEMPT NUMBER  1, TIME INCREMENT  7.119E-03

  NUMBER OF EQUATIONS =     22656     NUMBER OF RHS =    1
  NUMBER OF FLOATING PT. OPERATIONS =  1.87E+10

     CHECK POINT   START OF SOLVER    

     CHECK POINT  END OF SOLVER       

       ELAPSED USER TIME (SEC)      =   7.4000    
       ELAPSED SYSTEM TIME (SEC)    =   0.0000    
       ELAPSED TOTAL CPU TIME (SEC) =   7.4000    
       ELAPSED WALLCLOCK TIME (SEC) =          8

                   28 SEVERE DISCONTINUITIES OCCURRED DURING THIS ITERATION.
                   28 POINTS CHANGED FROM OPEN TO CLOSED

               CONVERGENCE CHECKS FOR SEVERE DISCONTINUITY ITERATION     1

   MAX. PENETRATION ERROR 21.9945E-12  AT NODE PART-1-1.1045 OF CONTACT PAIR 
   (ASSEMBLY_S_SURF-23,ASSEMBLY_M_SURF-23)
   MAX. CONTACT FORCE ERROR 907.181E-06   AT NODE PART-1-1.1045 OF CONTACT PAIR 
   (ASSEMBLY_S_SURF-23,ASSEMBLY_M_SURF-23)
          THE CONTACT CONSTRAINT ERRORS ARE WITHIN THE TOLERANCES.

 AVERAGE FORCE                       60.3       TIME AVG. FORCE        35.2    
 LARGEST RESIDUAL FORCE             -2.87       AT NODE       3203   DOF  2
   INSTANCE: PART-2-1                                                                        
 LARGEST INCREMENT OF DISP.        -1.263E-06   AT NODE       1075   DOF  2
   INSTANCE: PART-2-1                                                                        
 LARGEST CORRECTION TO DISP.       -5.574E-08   AT NODE       1080   DOF  2
   INSTANCE: PART-2-1                                                                        
          FORCE     EQUILIBRIUM NOT ACHIEVED WITHIN TOLERANCE.

  NUMBER OF EQUATIONS =     22656     NUMBER OF RHS =    1
  NUMBER OF FLOATING PT. OPERATIONS =  1.87E+10

     CHECK POINT   START OF SOLVER    

     CHECK POINT  END OF SOLVER       

       ELAPSED USER TIME (SEC)      =   7.5000    
       ELAPSED SYSTEM TIME (SEC)    =   0.0000    
       ELAPSED TOTAL CPU TIME (SEC) =   7.5000    
       ELAPSED WALLCLOCK TIME (SEC) =          7

                    4 SEVERE DISCONTINUITIES OCCURRED DURING THIS ITERATION.
                    4 POINTS CHANGED FROM OPEN TO CLOSED

               CONVERGENCE CHECKS FOR SEVERE DISCONTINUITY ITERATION     2

   MAX. PENETRATION ERROR 426.500E-15   AT NODE PART-1-1.1101 OF CONTACT PAIR 
   (ASSEMBLY_S_SURF-23,ASSEMBLY_M_SURF-23)
   MAX. CONTACT FORCE ERROR 13.6423E-06  AT NODE PART-1-1.1101 OF CONTACT PAIR 
   (ASSEMBLY_S_SURF-23,ASSEMBLY_M_SURF-23)
          THE CONTACT CONSTRAINT ERRORS ARE WITHIN THE TOLERANCES.

 AVERAGE FORCE                       60.3       TIME AVG. FORCE        35.3    
 LARGEST RESIDUAL FORCE             3.220E-02   AT NODE       2635   DOF  3
   INSTANCE: PART-2-1                                                                        
 LARGEST INCREMENT OF DISP.        -1.264E-06   AT NODE       1075   DOF  2
   INSTANCE: PART-2-1                                                                        
 LARGEST CORRECTION TO DISP.       -3.793E-09   AT NODE       1078   DOF  2
   INSTANCE: PART-2-1                                                                        
          THE FORCE     EQUILIBRIUM EQUATIONS HAVE CONVERGED
          TIME INCREMENT MAY NOW INCREASE TO    1.068E-02

 ITERATION SUMMARY FOR THE INCREMENT:   2 TOTAL ITERATIONS, OF WHICH
   2 ARE SEVERE DISCONTINUITY ITERATIONS AND  0 ARE EQUILIBRIUM ITERATIONS.

 TIME INCREMENT COMPLETED  7.119E-03,  FRACTION OF STEP COMPLETED  9.046E-02
 STEP TIME COMPLETED       9.046E-02,  TOTAL TIME COMPLETED        9.046E-02


  INCREMENT     9 STARTS. ATTEMPT NUMBER  1, TIME INCREMENT  1.068E-02

                    8 SEVERE DISCONTINUITIES OCCURRED DURING INCREMENT ATTEMPT INITIALIZATION.
                    8 POINTS CHANGED TO SLIPPING WITH NEGATIVE CPRESS

  NUMBER OF EQUATIONS =     22656     NUMBER OF RHS =    1
  NUMBER OF FLOATING PT. OPERATIONS =  1.87E+10

     CHECK POINT   START OF SOLVER    

     CHECK POINT  END OF SOLVER       

       ELAPSED USER TIME (SEC)      =   7.4000    
       ELAPSED SYSTEM TIME (SEC)    =   0.0000    
       ELAPSED TOTAL CPU TIME (SEC) =   7.4000    
       ELAPSED WALLCLOCK TIME (SEC) =          8

                   16 SEVERE DISCONTINUITIES OCCURRED DURING THIS ITERATION.
                   16 POINTS CHANGED FROM CLOSED TO OPEN

               CONVERGENCE CHECKS FOR SEVERE DISCONTINUITY ITERATION     1

   MAX. PENETRATION ERROR -2.44221E-15 AT NODE PART-1-1.1326 OF CONTACT PAIR 
   (ASSEMBLY_S_SURF-23,ASSEMBLY_M_SURF-23)
   MAX. CONTACT FORCE ERROR -64.0008E-03  AT NODE PART-1-1.1351 OF CONTACT PAIR 
   (ASSEMBLY_S_SURF-23,ASSEMBLY_M_SURF-23)
          THE CONTACT CONSTRAINT ERRORS ARE WITHIN THE TOLERANCES.

 AVERAGE FORCE                       68.8       TIME AVG. FORCE        39.0    
 LARGEST RESIDUAL FORCE              11.0       AT NODE       3924   DOF  2
   INSTANCE: PART-2-1                                                                        
 LARGEST INCREMENT OF DISP.        -1.976E-06   AT NODE       1075   DOF  2
   INSTANCE: PART-2-1                                                                        
 LARGEST CORRECTION TO DISP.       -1.070E-07   AT NODE       1078   DOF  2
   INSTANCE: PART-2-1                                                                        
          FORCE     EQUILIBRIUM NOT ACHIEVED WITHIN TOLERANCE.

  NUMBER OF EQUATIONS =     22656     NUMBER OF RHS =    1
  NUMBER OF FLOATING PT. OPERATIONS =  1.87E+10

     CHECK POINT   START OF SOLVER    

     CHECK POINT  END OF SOLVER       

       ELAPSED USER TIME (SEC)      =   7.5000    
       ELAPSED SYSTEM TIME (SEC)    =   0.0000    
       ELAPSED TOTAL CPU TIME (SEC) =   7.5000    
       ELAPSED WALLCLOCK TIME (SEC) =          8

               CONVERGENCE CHECKS FOR EQUILIBRIUM ITERATION     1

   MAX. PENETRATION ERROR -1.11272E-15 AT NODE PART-1-1.947 OF CONTACT PAIR 
   (ASSEMBLY_S_SURF-23,ASSEMBLY_M_SURF-23)
   MAX. CONTACT FORCE ERROR -37.4655E-09  AT NODE PART-1-1.947 OF CONTACT PAIR 
   (ASSEMBLY_S_SURF-23,ASSEMBLY_M_SURF-23)
          THE CONTACT CONSTRAINTS HAVE CONVERGED.

 AVERAGE FORCE                       68.8       TIME AVG. FORCE        39.0    
 LARGEST RESIDUAL FORCE             0.246       AT NODE       2636   DOF  1
   INSTANCE: PART-2-1                                                                        
 LARGEST INCREMENT OF DISP.        -1.980E-06   AT NODE       1075   DOF  2
   INSTANCE: PART-2-1                                                                        
 LARGEST CORRECTION TO DISP.        1.908E-08   AT NODE        180   DOF  1
   INSTANCE: PART-1-1                                                                        
          FORCE     EQUILIBRIUM NOT ACHIEVED WITHIN TOLERANCE.

  NUMBER OF EQUATIONS =     22656     NUMBER OF RHS =    1
  NUMBER OF FLOATING PT. OPERATIONS =  1.87E+10

     CHECK POINT   START OF SOLVER    

     CHECK POINT  END OF SOLVER       

       ELAPSED USER TIME (SEC)      =   7.5000    
       ELAPSED SYSTEM TIME (SEC)    =  0.10000    
       ELAPSED TOTAL CPU TIME (SEC) =   7.6000    
       ELAPSED WALLCLOCK TIME (SEC) =          7

               CONVERGENCE CHECKS FOR EQUILIBRIUM ITERATION     2

   MAX. PENETRATION ERROR 1.11694E-15 AT NODE PART-1-1.729 OF CONTACT PAIR 
   (ASSEMBLY_S_SURF-23,ASSEMBLY_M_SURF-23)
   MAX. CONTACT FORCE ERROR 37.6076E-09  AT NODE PART-1-1.729 OF CONTACT PAIR 
   (ASSEMBLY_S_SURF-23,ASSEMBLY_M_SURF-23)
          THE CONTACT CONSTRAINTS HAVE CONVERGED.

 AVERAGE FORCE                       68.8       TIME AVG. FORCE        39.0    
 LARGEST RESIDUAL FORCE            -1.024E-02   AT NODE          5   DOF  2
   INSTANCE: PART-2-1                                                                        
 LARGEST INCREMENT OF DISP.        -1.980E-06   AT NODE       1075   DOF  2
   INSTANCE: PART-2-1                                                                        
 LARGEST CORRECTION TO DISP.        3.153E-10   AT NODE        428   DOF  3
   INSTANCE: PART-1-1                                                                        
          THE FORCE     EQUILIBRIUM EQUATIONS HAVE CONVERGED
          TIME INCREMENT MAY NOW INCREASE TO    1.602E-02

 ITERATION SUMMARY FOR THE INCREMENT:   3 TOTAL ITERATIONS, OF WHICH
   1 ARE SEVERE DISCONTINUITY ITERATIONS AND  2 ARE EQUILIBRIUM ITERATIONS.

 TIME INCREMENT COMPLETED  1.068E-02,  FRACTION OF STEP COMPLETED  0.101    
 STEP TIME COMPLETED       0.101    ,  TOTAL TIME COMPLETED        0.101    


  INCREMENT    10 STARTS. ATTEMPT NUMBER  1, TIME INCREMENT  1.602E-02

                   28 SEVERE DISCONTINUITIES OCCURRED DURING INCREMENT ATTEMPT INITIALIZATION.
                   28 POINTS CHANGED TO SLIPPING WITH NEGATIVE CPRESS

  NUMBER OF EQUATIONS =     22656     NUMBER OF RHS =    1
  NUMBER OF FLOATING PT. OPERATIONS =  1.87E+10

     CHECK POINT   START OF SOLVER    

     CHECK POINT  END OF SOLVER       

       ELAPSED USER TIME (SEC)      =   7.4000    
       ELAPSED SYSTEM TIME (SEC)    =   0.0000    
       ELAPSED TOTAL CPU TIME (SEC) =   7.4000    
       ELAPSED WALLCLOCK TIME (SEC) =          8

                   36 SEVERE DISCONTINUITIES OCCURRED DURING THIS ITERATION.
                    8 POINTS CHANGED FROM OPEN TO CLOSED
                   28 POINTS CHANGED FROM CLOSED TO OPEN

               CONVERGENCE CHECKS FOR SEVERE DISCONTINUITY ITERATION     1

   MAX. PENETRATION ERROR 44.9634E-12  AT NODE PART-1-1.1347 OF CONTACT PAIR 
   (ASSEMBLY_S_SURF-23,ASSEMBLY_M_SURF-23)
   MAX. CONTACT FORCE ERROR -99.0104E-03  AT NODE PART-1-1.1114 OF CONTACT PAIR 
   (ASSEMBLY_S_SURF-23,ASSEMBLY_M_SURF-23)
          THE CONTACT CONSTRAINT ERRORS ARE WITHIN THE TOLERANCES.

 AVERAGE FORCE                       81.7       TIME AVG. FORCE        43.2    
 LARGEST RESIDUAL FORCE             -59.7       AT NODE       4622   DOF  3
   INSTANCE: PART-2-1                                                                        
 LARGEST INCREMENT OF DISP.        -3.171E-06   AT NODE       1075   DOF  2
   INSTANCE: PART-2-1                                                                        
 LARGEST CORRECTION TO DISP.       -2.692E-07   AT NODE       1069   DOF  2
   INSTANCE: PART-2-1                                                                        
          FORCE     EQUILIBRIUM NOT ACHIEVED WITHIN TOLERANCE.

  NUMBER OF EQUATIONS =     22656     NUMBER OF RHS =    1
  NUMBER OF FLOATING PT. OPERATIONS =  1.87E+10

     CHECK POINT   START OF SOLVER    

     CHECK POINT  END OF SOLVER       

       ELAPSED USER TIME (SEC)      =   7.2000    
       ELAPSED SYSTEM TIME (SEC)    =  0.10000    
       ELAPSED TOTAL CPU TIME (SEC) =   7.3000    
       ELAPSED WALLCLOCK TIME (SEC) =          8

               CONVERGENCE CHECKS FOR EQUILIBRIUM ITERATION     1

   MAX. PENETRATION ERROR 1.37537E-15 AT NODE PART-1-1.1043 OF CONTACT PAIR 
   (ASSEMBLY_S_SURF-23,ASSEMBLY_M_SURF-23)
   MAX. CONTACT FORCE ERROR 48.6240E-09  AT NODE PART-1-1.1043 OF CONTACT PAIR 
   (ASSEMBLY_S_SURF-23,ASSEMBLY_M_SURF-23)
          THE CONTACT CONSTRAINTS HAVE CONVERGED.

 AVERAGE FORCE                       81.6       TIME AVG. FORCE        43.2    
 LARGEST RESIDUAL FORCE              6.30       AT NODE       4625   DOF  3
   INSTANCE: PART-2-1                                                                        
 LARGEST INCREMENT OF DISP.        -3.179E-06   AT NODE       1070   DOF  2
   INSTANCE: PART-2-1                                                                        
 LARGEST CORRECTION TO DISP.       -8.378E-08   AT NODE       4622   DOF  3
   INSTANCE: PART-2-1                                                                        
          FORCE     EQUILIBRIUM NOT ACHIEVED WITHIN TOLERANCE.

  NUMBER OF EQUATIONS =     22656     NUMBER OF RHS =    1
  NUMBER OF FLOATING PT. OPERATIONS =  1.87E+10

     CHECK POINT   START OF SOLVER    

     CHECK POINT  END OF SOLVER       

       ELAPSED USER TIME (SEC)      =   7.6000    
       ELAPSED SYSTEM TIME (SEC)    =  0.10000    
       ELAPSED TOTAL CPU TIME (SEC) =   7.7000    
       ELAPSED WALLCLOCK TIME (SEC) =          8

               CONVERGENCE CHECKS FOR EQUILIBRIUM ITERATION     2

   MAX. PENETRATION ERROR 1.20692E-15 AT NODE PART-1-1.164 OF CONTACT PAIR 
   (ASSEMBLY_S_SURF-23,ASSEMBLY_M_SURF-23)
   MAX. CONTACT FORCE ERROR 33.6621E-09  AT NODE PART-1-1.1543 OF CONTACT PAIR 
   (ASSEMBLY_S_SURF-23,ASSEMBLY_M_SURF-23)
          THE CONTACT CONSTRAINTS HAVE CONVERGED.

 AVERAGE FORCE                       81.6       TIME AVG. FORCE        43.2    
 LARGEST RESIDUAL FORCE             0.115       AT NODE       4621   DOF  3
   INSTANCE: PART-2-1                                                                        
 LARGEST INCREMENT OF DISP.        -3.179E-06   AT NODE       1070   DOF  2
   INSTANCE: PART-2-1                                                                        
 LARGEST CORRECTION TO DISP.       -2.333E-09   AT NODE        185   DOF  2
   INSTANCE: PART-2-1                                                                        
          THE FORCE     EQUILIBRIUM EQUATIONS HAVE CONVERGED
          TIME INCREMENT MAY NOW INCREASE TO    2.403E-02

 ITERATION SUMMARY FOR THE INCREMENT:   3 TOTAL ITERATIONS, OF WHICH
   1 ARE SEVERE DISCONTINUITY ITERATIONS AND  2 ARE EQUILIBRIUM ITERATIONS.

 TIME INCREMENT COMPLETED  1.602E-02,  FRACTION OF STEP COMPLETED  0.117    
 STEP TIME COMPLETED       0.117    ,  TOTAL TIME COMPLETED        0.117    


  INCREMENT    11 STARTS. ATTEMPT NUMBER  1, TIME INCREMENT  2.403E-02

                   40 SEVERE DISCONTINUITIES OCCURRED DURING INCREMENT ATTEMPT INITIALIZATION.
                   40 POINTS CHANGED TO SLIPPING WITH NEGATIVE CPRESS

  NUMBER OF EQUATIONS =     22656     NUMBER OF RHS =    1
  NUMBER OF FLOATING PT. OPERATIONS =  1.87E+10

     CHECK POINT   START OF SOLVER    

     CHECK POINT  END OF SOLVER       

       ELAPSED USER TIME (SEC)      =   7.3000    
       ELAPSED SYSTEM TIME (SEC)    =   0.0000    
       ELAPSED TOTAL CPU TIME (SEC) =   7.3000    
       ELAPSED WALLCLOCK TIME (SEC) =          7

                   72 SEVERE DISCONTINUITIES OCCURRED DURING THIS ITERATION.
                   32 POINTS CHANGED FROM OPEN TO CLOSED
                   32 POINTS CHANGED FROM CLOSED TO OPEN
                    8 POINTS CHANGED FROM SLIPPING TO STICKING

               CONVERGENCE CHECKS FOR SEVERE DISCONTINUITY ITERATION     1

   MAX. PENETRATION ERROR 295.695E-12   AT NODE PART-1-1.275 OF CONTACT PAIR 
   (ASSEMBLY_S_SURF-23,ASSEMBLY_M_SURF-23)
   MAX. CONTACT FORCE ERROR -499.252E-03   AT NODE PART-1-1.1082 OF CONTACT 
   PAIR (ASSEMBLY_S_SURF-23,ASSEMBLY_M_SURF-23)
          THE CONTACT CONSTRAINT ERRORS ARE WITHIN THE TOLERANCES.

 AVERAGE FORCE                       102.       TIME AVG. FORCE        48.6    
 LARGEST RESIDUAL FORCE              16.6       AT NODE        649   DOF  3
   INSTANCE: PART-2-1                                                                        
 LARGEST INCREMENT OF DISP.        -5.184E-06   AT NODE       1074   DOF  2
   INSTANCE: PART-2-1                                                                        
 LARGEST CORRECTION TO DISP.       -4.706E-07   AT NODE       1078   DOF  2
   INSTANCE: PART-2-1                                                                        
          FORCE     EQUILIBRIUM NOT ACHIEVED WITHIN TOLERANCE.

  NUMBER OF EQUATIONS =     22656     NUMBER OF RHS =    1
  NUMBER OF FLOATING PT. OPERATIONS =  1.87E+10

     CHECK POINT   START OF SOLVER    

     CHECK POINT  END OF SOLVER       

       ELAPSED USER TIME (SEC)      =   7.7000    
       ELAPSED SYSTEM TIME (SEC)    =  0.10000    
       ELAPSED TOTAL CPU TIME (SEC) =   7.8000    
       ELAPSED WALLCLOCK TIME (SEC) =          8

               CONVERGENCE CHECKS FOR EQUILIBRIUM ITERATION     1

   MAX. PENETRATION ERROR -1.01661E-15 AT NODE PART-1-1.1683 OF CONTACT PAIR 
   (ASSEMBLY_S_SURF-23,ASSEMBLY_M_SURF-23)
   MAX. CONTACT FORCE ERROR -32.6450E-09  AT NODE PART-1-1.1345 OF CONTACT PAIR 
   (ASSEMBLY_S_SURF-23,ASSEMBLY_M_SURF-23)
          THE CONTACT CONSTRAINTS HAVE CONVERGED.

 AVERAGE FORCE                       102.       TIME AVG. FORCE        48.5    
 LARGEST RESIDUAL FORCE             -3.13       AT NODE       3280   DOF  3
   INSTANCE: PART-2-1                                                                        
 LARGEST INCREMENT OF DISP.        -5.209E-06   AT NODE       1079   DOF  2
   INSTANCE: PART-2-1                                                                        
 LARGEST CORRECTION TO DISP.        4.737E-08   AT NODE        114   DOF  3
   INSTANCE: PART-2-1                                                                        
          FORCE     EQUILIBRIUM NOT ACHIEVED WITHIN TOLERANCE.

  NUMBER OF EQUATIONS =     22656     NUMBER OF RHS =    1
  NUMBER OF FLOATING PT. OPERATIONS =  1.87E+10

     CHECK POINT   START OF SOLVER    

     CHECK POINT  END OF SOLVER       

       ELAPSED USER TIME (SEC)      =   8.8000    
       ELAPSED SYSTEM TIME (SEC)    =  0.10000    
       ELAPSED TOTAL CPU TIME (SEC) =   8.9000    
       ELAPSED WALLCLOCK TIME (SEC) =         10

               CONVERGENCE CHECKS FOR EQUILIBRIUM ITERATION     2

   MAX. PENETRATION ERROR 1.36895E-15 AT NODE PART-1-1.505 OF CONTACT PAIR 
   (ASSEMBLY_S_SURF-23,ASSEMBLY_M_SURF-23)
   MAX. CONTACT FORCE ERROR 41.4834E-09  AT NODE PART-1-1.505 OF CONTACT PAIR 
   (ASSEMBLY_S_SURF-23,ASSEMBLY_M_SURF-23)
          THE CONTACT CONSTRAINTS HAVE CONVERGED.

 AVERAGE FORCE                       102.       TIME AVG. FORCE        48.5    
 LARGEST RESIDUAL FORCE            -6.479E-02   AT NODE       1482   DOF  1
   INSTANCE: PART-2-1                                                                        
 LARGEST INCREMENT OF DISP.        -5.209E-06   AT NODE       1079   DOF  2
   INSTANCE: PART-2-1                                                                        
 LARGEST CORRECTION TO DISP.       -1.773E-09   AT NODE       4664   DOF  1
   INSTANCE: PART-2-1                                                                        
          THE FORCE     EQUILIBRIUM EQUATIONS HAVE CONVERGED
          TIME INCREMENT MAY NOW INCREASE TO    3.604E-02

 ITERATION SUMMARY FOR THE INCREMENT:   3 TOTAL ITERATIONS, OF WHICH
   1 ARE SEVERE DISCONTINUITY ITERATIONS AND  2 ARE EQUILIBRIUM ITERATIONS.

 TIME INCREMENT COMPLETED  2.403E-02,  FRACTION OF STEP COMPLETED  0.141    
 STEP TIME COMPLETED       0.141    ,  TOTAL TIME COMPLETED        0.141    


  INCREMENT    12 STARTS. ATTEMPT NUMBER  1, TIME INCREMENT  3.604E-02

                   12 SEVERE DISCONTINUITIES OCCURRED DURING INCREMENT ATTEMPT INITIALIZATION.
                   12 POINTS CHANGED TO SLIPPING WITH NEGATIVE CPRESS

  NUMBER OF EQUATIONS =     22656     NUMBER OF RHS =    1
  NUMBER OF FLOATING PT. OPERATIONS =  1.87E+10

     CHECK POINT   START OF SOLVER    

     CHECK POINT  END OF SOLVER       

       ELAPSED USER TIME (SEC)      =   7.3000    
       ELAPSED SYSTEM TIME (SEC)    =  0.10000    
       ELAPSED TOTAL CPU TIME (SEC) =   7.4000    
       ELAPSED WALLCLOCK TIME (SEC) =          7

                   28 SEVERE DISCONTINUITIES OCCURRED DURING THIS ITERATION.
                    8 POINTS CHANGED FROM OPEN TO CLOSED
                   12 POINTS CHANGED FROM CLOSED TO OPEN
                    8 POINTS CHANGED FROM SLIPPING TO STICKING

               CONVERGENCE CHECKS FOR SEVERE DISCONTINUITY ITERATION     1

   MAX. PENETRATION ERROR 116.558E-12   AT NODE PART-1-1.350 OF CONTACT PAIR 
   (ASSEMBLY_S_SURF-23,ASSEMBLY_M_SURF-23)
   MAX. CONTACT FORCE ERROR -1.42468     AT NODE PART-1-1.1109 OF CONTACT PAIR 
   (ASSEMBLY_S_SURF-23,ASSEMBLY_M_SURF-23)
          THE CONTACT CONSTRAINT ERRORS ARE WITHIN THE TOLERANCES.

 AVERAGE FORCE                       134.       TIME AVG. FORCE        55.7    
 LARGEST RESIDUAL FORCE              62.4       AT NODE       2634   DOF  2
   INSTANCE: PART-2-1                                                                        
 LARGEST INCREMENT OF DISP.        -8.772E-06   AT NODE       1079   DOF  2
   INSTANCE: PART-2-1                                                                        
 LARGEST CORRECTION TO DISP.       -1.013E-06   AT NODE       1078   DOF  2
   INSTANCE: PART-2-1                                                                        
          FORCE     EQUILIBRIUM NOT ACHIEVED WITHIN TOLERANCE.

  NUMBER OF EQUATIONS =     22656     NUMBER OF RHS =    1
  NUMBER OF FLOATING PT. OPERATIONS =  1.87E+10

     CHECK POINT   START OF SOLVER    

     CHECK POINT  END OF SOLVER       

       ELAPSED USER TIME (SEC)      =   7.3000    
       ELAPSED SYSTEM TIME (SEC)    =  0.10000    
       ELAPSED TOTAL CPU TIME (SEC) =   7.4000    
       ELAPSED WALLCLOCK TIME (SEC) =          7

               CONVERGENCE CHECKS FOR EQUILIBRIUM ITERATION     1

   MAX. PENETRATION ERROR 1.33781E-15 AT NODE PART-1-1.1714 OF CONTACT PAIR 
   (ASSEMBLY_S_SURF-23,ASSEMBLY_M_SURF-23)
   MAX. CONTACT FORCE ERROR 45.0442E-09  AT NODE PART-1-1.1714 OF CONTACT PAIR 
   (ASSEMBLY_S_SURF-23,ASSEMBLY_M_SURF-23)
          THE CONTACT CONSTRAINTS HAVE CONVERGED.

 AVERAGE FORCE                       134.       TIME AVG. FORCE        55.7    
 LARGEST RESIDUAL FORCE              7.72       AT NODE       3346   DOF  1
   INSTANCE: PART-2-1                                                                        
 LARGEST INCREMENT OF DISP.        -8.824E-06   AT NODE       1079   DOF  2
   INSTANCE: PART-2-1                                                                        
 LARGEST CORRECTION TO DISP.        2.557E-07   AT NODE       1250   DOF  2
   INSTANCE: PART-2-1                                                                        
          FORCE     EQUILIBRIUM NOT ACHIEVED WITHIN TOLERANCE.

  NUMBER OF EQUATIONS =     22656     NUMBER OF RHS =    1
  NUMBER OF FLOATING PT. OPERATIONS =  1.87E+10

     CHECK POINT   START OF SOLVER    

     CHECK POINT  END OF SOLVER       

       ELAPSED USER TIME (SEC)      =   7.4000    
       ELAPSED SYSTEM TIME (SEC)    =  0.10000    
       ELAPSED TOTAL CPU TIME (SEC) =   7.5000    
       ELAPSED WALLCLOCK TIME (SEC) =          7

               CONVERGENCE CHECKS FOR EQUILIBRIUM ITERATION     2

   MAX. PENETRATION ERROR 921.111E-18   AT NODE PART-1-1.1290 OF CONTACT PAIR 
   (ASSEMBLY_S_SURF-23,ASSEMBLY_M_SURF-23)
   MAX. CONTACT FORCE ERROR -32.5944E-09  AT NODE PART-1-1.1297 OF CONTACT PAIR 
   (ASSEMBLY_S_SURF-23,ASSEMBLY_M_SURF-23)
          THE CONTACT CONSTRAINTS HAVE CONVERGED.

[...]


  INCREMENT    39 STARTS. ATTEMPT NUMBER  4, TIME INCREMENT  3.255E-04

  NUMBER OF EQUATIONS =     22656     NUMBER OF RHS =    1
  NUMBER OF FLOATING PT. OPERATIONS =  1.87E+10

     CHECK POINT   START OF SOLVER    

     CHECK POINT  END OF SOLVER       

       ELAPSED USER TIME (SEC)      =   7.5000    
       ELAPSED SYSTEM TIME (SEC)    =   0.0000    
       ELAPSED TOTAL CPU TIME (SEC) =   7.5000    
       ELAPSED WALLCLOCK TIME (SEC) =          8

               CONVERGENCE CHECKS FOR EQUILIBRIUM ITERATION     1

   MAX. PENETRATION ERROR 1.12271E-15 AT NODE PART-1-1.1047 OF CONTACT PAIR 
   (ASSEMBLY_S_SURF-23,ASSEMBLY_M_SURF-23)
   MAX. CONTACT FORCE ERROR 34.7860E-09  AT NODE PART-1-1.539 OF CONTACT PAIR 
   (ASSEMBLY_S_SURF-23,ASSEMBLY_M_SURF-23)
          THE CONTACT CONSTRAINTS HAVE CONVERGED.

 AVERAGE FORCE                       322.       TIME AVG. FORCE        190.    
 LARGEST RESIDUAL FORCE             -10.7       AT NODE       3157   DOF  2
   INSTANCE: PART-2-1                                                                        
 LARGEST INCREMENT OF DISP.        -2.346E-08   AT NODE       1072   DOF  2
   INSTANCE: PART-2-1                                                                        
 LARGEST CORRECTION TO DISP.       -2.346E-08   AT NODE       1072   DOF  2
   INSTANCE: PART-2-1                                                                        
          FORCE     EQUILIBRIUM NOT ACHIEVED WITHIN TOLERANCE.

  NUMBER OF EQUATIONS =     22656     NUMBER OF RHS =    1
  NUMBER OF FLOATING PT. OPERATIONS =  1.87E+10

     CHECK POINT   START OF SOLVER    

     CHECK POINT  END OF SOLVER       

       ELAPSED USER TIME (SEC)      =   7.4000    
       ELAPSED SYSTEM TIME (SEC)    =   0.0000    
       ELAPSED TOTAL CPU TIME (SEC) =   7.4000    
       ELAPSED WALLCLOCK TIME (SEC) =          8

               CONVERGENCE CHECKS FOR EQUILIBRIUM ITERATION     2

   MAX. PENETRATION ERROR -1.78274E-15 AT NODE PART-1-1.1047 OF CONTACT PAIR 
   (ASSEMBLY_S_SURF-23,ASSEMBLY_M_SURF-23)
   MAX. CONTACT FORCE ERROR -54.0226E-09  AT NODE PART-1-1.1047 OF CONTACT PAIR 
   (ASSEMBLY_S_SURF-23,ASSEMBLY_M_SURF-23)
          THE CONTACT CONSTRAINTS HAVE CONVERGED.

 AVERAGE FORCE                       322.       TIME AVG. FORCE        190.    
 LARGEST RESIDUAL FORCE              7.11       AT NODE       3928   DOF  1
   INSTANCE: PART-2-1                                                                        
 LARGEST INCREMENT OF DISP.        -1.442E-07   AT NODE       1072   DOF  2
   INSTANCE: PART-2-1                                                                        
 LARGEST CORRECTION TO DISP.       -1.229E-07   AT NODE       3157   DOF  2
   INSTANCE: PART-2-1                                                                        
          FORCE     EQUILIBRIUM NOT ACHIEVED WITHIN TOLERANCE.

  NUMBER OF EQUATIONS =     22656     NUMBER OF RHS =    1
  NUMBER OF FLOATING PT. OPERATIONS =  1.87E+10

     CHECK POINT   START OF SOLVER    

     CHECK POINT  END OF SOLVER       

       ELAPSED USER TIME (SEC)      =   7.4000    
       ELAPSED SYSTEM TIME (SEC)    =   0.0000    
       ELAPSED TOTAL CPU TIME (SEC) =   7.4000    
       ELAPSED WALLCLOCK TIME (SEC) =          8

               CONVERGENCE CHECKS FOR EQUILIBRIUM ITERATION     3

   MAX. PENETRATION ERROR 1.10929E-15 AT NODE PART-1-1.960 OF CONTACT PAIR 
   (ASSEMBLY_S_SURF-23,ASSEMBLY_M_SURF-23)
   MAX. CONTACT FORCE ERROR 37.5995E-09  AT NODE PART-1-1.1038 OF CONTACT PAIR 
   (ASSEMBLY_S_SURF-23,ASSEMBLY_M_SURF-23)
          THE CONTACT CONSTRAINTS HAVE CONVERGED.

 AVERAGE FORCE                       322.       TIME AVG. FORCE        190.    
 LARGEST RESIDUAL FORCE             -38.8       AT NODE       3335   DOF  1
   INSTANCE: PART-2-1                                                                        
 LARGEST INCREMENT OF DISP.        -1.089E-06   AT NODE       3157   DOF  2
   INSTANCE: PART-2-1                                                                        
 LARGEST CORRECTION TO DISP.       -9.460E-07   AT NODE       3157   DOF  2
   INSTANCE: PART-2-1                                                                        
          FORCE     EQUILIBRIUM NOT ACHIEVED WITHIN TOLERANCE.

  NUMBER OF EQUATIONS =     22656     NUMBER OF RHS =    1
  NUMBER OF FLOATING PT. OPERATIONS =  1.87E+10

     CHECK POINT   START OF SOLVER    

     CHECK POINT  END OF SOLVER       

       ELAPSED USER TIME (SEC)      =   7.3000    
       ELAPSED SYSTEM TIME (SEC)    =   0.0000    
       ELAPSED TOTAL CPU TIME (SEC) =   7.3000    
       ELAPSED WALLCLOCK TIME (SEC) =          8

               CONVERGENCE CHECKS FOR EQUILIBRIUM ITERATION     4

   MAX. PENETRATION ERROR 5.21019E-15 AT NODE PART-1-1.1724 OF CONTACT PAIR 
   (ASSEMBLY_S_SURF-23,ASSEMBLY_M_SURF-23)
   MAX. CONTACT FORCE ERROR 204.651E-09   AT NODE PART-1-1.1724 OF CONTACT PAIR 
   (ASSEMBLY_S_SURF-23,ASSEMBLY_M_SURF-23)
          THE CONTACT CONSTRAINTS HAVE CONVERGED.

 AVERAGE FORCE                       322.       TIME AVG. FORCE        190.    
 LARGEST RESIDUAL FORCE             -38.0       AT NODE          5   DOF  3
   INSTANCE: PART-2-1                                                                        
 LARGEST INCREMENT OF DISP.        -4.061E-06   AT NODE       3157   DOF  2
   INSTANCE: PART-2-1                                                                        
 LARGEST CORRECTION TO DISP.       -2.973E-06   AT NODE       3157   DOF  2
   INSTANCE: PART-2-1                                                                        
          FORCE     EQUILIBRIUM NOT ACHIEVED WITHIN TOLERANCE.

  NUMBER OF EQUATIONS =     22656     NUMBER OF RHS =    1
  NUMBER OF FLOATING PT. OPERATIONS =  1.87E+10

     CHECK POINT   START OF SOLVER    

     CHECK POINT  END OF SOLVER       

       ELAPSED USER TIME (SEC)      =   7.3000    
       ELAPSED SYSTEM TIME (SEC)    =   0.0000    
       ELAPSED TOTAL CPU TIME (SEC) =   7.3000    
       ELAPSED WALLCLOCK TIME (SEC) =          7

               CONVERGENCE CHECKS FOR EQUILIBRIUM ITERATION     5

   MAX. PENETRATION ERROR -1.30605E-15 AT NODE PART-1-1.1317 OF CONTACT PAIR 
   (ASSEMBLY_S_SURF-23,ASSEMBLY_M_SURF-23)
   MAX. CONTACT FORCE ERROR -46.1733E-09  AT NODE PART-1-1.1317 OF CONTACT PAIR 
   (ASSEMBLY_S_SURF-23,ASSEMBLY_M_SURF-23)
          THE CONTACT CONSTRAINTS HAVE CONVERGED.

 AVERAGE FORCE                       322.       TIME AVG. FORCE        190.    
 LARGEST RESIDUAL FORCE              22.1       AT NODE          5   DOF  1
   INSTANCE: PART-2-1                                                                        
 LARGEST INCREMENT OF DISP.        -4.757E-06   AT NODE       3157   DOF  2
   INSTANCE: PART-2-1                                                                        
 LARGEST CORRECTION TO DISP.       -6.951E-07   AT NODE       3157   DOF  2
   INSTANCE: PART-2-1                                                                        
          FORCE     EQUILIBRIUM NOT ACHIEVED WITHIN TOLERANCE.

  NUMBER OF EQUATIONS =     22656     NUMBER OF RHS =    1
  NUMBER OF FLOATING PT. OPERATIONS =  1.87E+10

     CHECK POINT   START OF SOLVER    

     CHECK POINT  END OF SOLVER       

       ELAPSED USER TIME (SEC)      =   7.4000    
       ELAPSED SYSTEM TIME (SEC)    =   0.0000    
       ELAPSED TOTAL CPU TIME (SEC) =   7.4000    
       ELAPSED WALLCLOCK TIME (SEC) =          8

               CONVERGENCE CHECKS FOR EQUILIBRIUM ITERATION     6

   MAX. PENETRATION ERROR 1.69373E-15 AT NODE PART-1-1.1722 OF CONTACT PAIR 
   (ASSEMBLY_S_SURF-23,ASSEMBLY_M_SURF-23)
   MAX. CONTACT FORCE ERROR 57.0242E-09  AT NODE PART-1-1.1722 OF CONTACT PAIR 
   (ASSEMBLY_S_SURF-23,ASSEMBLY_M_SURF-23)
          THE CONTACT CONSTRAINTS HAVE CONVERGED.

 AVERAGE FORCE                       322.       TIME AVG. FORCE        190.    
 LARGEST RESIDUAL FORCE             -21.6       AT NODE          5   DOF  1
   INSTANCE: PART-2-1                                                                        
 LARGEST INCREMENT OF DISP.        -3.232E-06   AT NODE       3157   DOF  2
   INSTANCE: PART-2-1                                                                        
 LARGEST CORRECTION TO DISP.        1.525E-06   AT NODE       3157   DOF  2
   INSTANCE: PART-2-1                                                                        
          FORCE     EQUILIBRIUM NOT ACHIEVED WITHIN TOLERANCE.

  NUMBER OF EQUATIONS =     22656     NUMBER OF RHS =    1
  NUMBER OF FLOATING PT. OPERATIONS =  1.87E+10

     CHECK POINT   START OF SOLVER    

     CHECK POINT  END OF SOLVER       

       ELAPSED USER TIME (SEC)      =   7.4000    
       ELAPSED SYSTEM TIME (SEC)    =   0.0000    
       ELAPSED TOTAL CPU TIME (SEC) =   7.4000    
       ELAPSED WALLCLOCK TIME (SEC) =          8

               CONVERGENCE CHECKS FOR EQUILIBRIUM ITERATION     7

   MAX. PENETRATION ERROR 3.78709E-15 AT NODE PART-1-1.963 OF CONTACT PAIR 
   (ASSEMBLY_S_SURF-23,ASSEMBLY_M_SURF-23)
   MAX. CONTACT FORCE ERROR 127.503E-09   AT NODE PART-1-1.963 OF CONTACT PAIR 
   (ASSEMBLY_S_SURF-23,ASSEMBLY_M_SURF-23)
          THE CONTACT CONSTRAINTS HAVE CONVERGED.

 AVERAGE FORCE                       322.       TIME AVG. FORCE        190.    
 LARGEST RESIDUAL FORCE              7.15       AT NODE       3725   DOF  1
   INSTANCE: PART-2-1                                                                        
 LARGEST INCREMENT OF DISP.        -5.578E-06   AT NODE       3157   DOF  2
   INSTANCE: PART-2-1                                                                        
 LARGEST CORRECTION TO DISP.       -2.347E-06   AT NODE       3157   DOF  2
   INSTANCE: PART-2-1                                                                        
          FORCE     EQUILIBRIUM NOT ACHIEVED WITHIN TOLERANCE.

  NUMBER OF EQUATIONS =     22656     NUMBER OF RHS =    1
  NUMBER OF FLOATING PT. OPERATIONS =  1.87E+10

     CHECK POINT   START OF SOLVER    

     CHECK POINT  END OF SOLVER       

       ELAPSED USER TIME (SEC)      =   7.5000    
       ELAPSED SYSTEM TIME (SEC)    =  0.10000    
       ELAPSED TOTAL CPU TIME (SEC) =   7.6000    
       ELAPSED WALLCLOCK TIME (SEC) =          8

               CONVERGENCE CHECKS FOR EQUILIBRIUM ITERATION     8

   MAX. PENETRATION ERROR 1.21396E-15 AT NODE PART-1-1.1555 OF CONTACT PAIR 
   (ASSEMBLY_S_SURF-23,ASSEMBLY_M_SURF-23)
   MAX. CONTACT FORCE ERROR 48.0269E-09  AT NODE PART-1-1.1555 OF CONTACT PAIR 
   (ASSEMBLY_S_SURF-23,ASSEMBLY_M_SURF-23)
          THE CONTACT CONSTRAINTS HAVE CONVERGED.

 AVERAGE FORCE                       322.       TIME AVG. FORCE        190.    
 LARGEST RESIDUAL FORCE             -9.23       AT NODE       3713   DOF  3
   INSTANCE: PART-2-1                                                                        
 LARGEST INCREMENT OF DISP.        -5.050E-06   AT NODE       3157   DOF  2
   INSTANCE: PART-2-1                                                                        
 LARGEST CORRECTION TO DISP.        5.283E-07   AT NODE       3157   DOF  2
   INSTANCE: PART-2-1                                                                        
          FORCE     EQUILIBRIUM NOT ACHIEVED WITHIN TOLERANCE.

  NUMBER OF EQUATIONS =     22656     NUMBER OF RHS =    1
  NUMBER OF FLOATING PT. OPERATIONS =  1.87E+10

     CHECK POINT   START OF SOLVER    

     CHECK POINT  END OF SOLVER       

       ELAPSED USER TIME (SEC)      =   7.8000    
       ELAPSED SYSTEM TIME (SEC)    =  0.10000    
       ELAPSED TOTAL CPU TIME (SEC) =   7.9000    
       ELAPSED WALLCLOCK TIME (SEC) =          8

               CONVERGENCE CHECKS FOR EQUILIBRIUM ITERATION     9

   MAX. PENETRATION ERROR 1.75307E-15 AT NODE PART-1-1.960 OF CONTACT PAIR 
   (ASSEMBLY_S_SURF-23,ASSEMBLY_M_SURF-23)
   MAX. CONTACT FORCE ERROR 64.5002E-09  AT NODE PART-1-1.727 OF CONTACT PAIR 
   (ASSEMBLY_S_SURF-23,ASSEMBLY_M_SURF-23)
          THE CONTACT CONSTRAINTS HAVE CONVERGED.

 AVERAGE FORCE                       322.       TIME AVG. FORCE        190.    
 LARGEST RESIDUAL FORCE             -20.1       AT NODE          5   DOF  1
   INSTANCE: PART-2-1                                                                        
 LARGEST INCREMENT OF DISP.        -3.476E-06   AT NODE       3157   DOF  2
   INSTANCE: PART-2-1                                                                        
 LARGEST CORRECTION TO DISP.        1.574E-06   AT NODE       3157   DOF  2
   INSTANCE: PART-2-1                                                                        
          FORCE     EQUILIBRIUM NOT ACHIEVED WITHIN TOLERANCE.
 

 ***NOTE: THE SOLUTION APPEARS TO BE DIVERGING. CONVERGENCE IS JUDGED UNLIKELY.


  INCREMENT    39 STARTS. ATTEMPT NUMBER  5, TIME INCREMENT  8.137E-05

  NUMBER OF EQUATIONS =     22656     NUMBER OF RHS =    1
  NUMBER OF FLOATING PT. OPERATIONS =  1.87E+10

     CHECK POINT   START OF SOLVER    

     CHECK POINT  END OF SOLVER       

       ELAPSED USER TIME (SEC)      =   7.4000    
       ELAPSED SYSTEM TIME (SEC)    =   0.0000    
       ELAPSED TOTAL CPU TIME (SEC) =   7.4000    
       ELAPSED WALLCLOCK TIME (SEC) =          7

               CONVERGENCE CHECKS FOR EQUILIBRIUM ITERATION     1

   MAX. PENETRATION ERROR 1.03048E-15 AT NODE PART-1-1.1047 OF CONTACT PAIR 
   (ASSEMBLY_S_SURF-23,ASSEMBLY_M_SURF-23)
   MAX. CONTACT FORCE ERROR 36.8980E-09  AT NODE PART-1-1.539 OF CONTACT PAIR 
   (ASSEMBLY_S_SURF-23,ASSEMBLY_M_SURF-23)
          THE CONTACT CONSTRAINTS HAVE CONVERGED.

 AVERAGE FORCE                       321.       TIME AVG. FORCE        190.    
 LARGEST RESIDUAL FORCE             -2.32       AT NODE       3165   DOF  2
   INSTANCE: PART-2-1                                                                        
 LARGEST INCREMENT OF DISP.        -5.875E-09   AT NODE       1072   DOF  2
   INSTANCE: PART-2-1                                                                        
 LARGEST CORRECTION TO DISP.       -5.875E-09   AT NODE       1072   DOF  2
   INSTANCE: PART-2-1                                                                        
          FORCE     EQUILIBRIUM NOT ACHIEVED WITHIN TOLERANCE.

  NUMBER OF EQUATIONS =     22656     NUMBER OF RHS =    1
  NUMBER OF FLOATING PT. OPERATIONS =  1.87E+10

     CHECK POINT   START OF SOLVER    

     CHECK POINT  END OF SOLVER       

       ELAPSED USER TIME (SEC)      =   7.4000    
       ELAPSED SYSTEM TIME (SEC)    =   0.0000    
       ELAPSED TOTAL CPU TIME (SEC) =   7.4000    
       ELAPSED WALLCLOCK TIME (SEC) =          7

               CONVERGENCE CHECKS FOR EQUILIBRIUM ITERATION     2

   MAX. PENETRATION ERROR -1.10606E-15 AT NODE PART-1-1.1083 OF CONTACT PAIR 
   (ASSEMBLY_S_SURF-23,ASSEMBLY_M_SURF-23)
   MAX. CONTACT FORCE ERROR -45.6202E-09  AT NODE PART-1-1.1083 OF CONTACT PAIR 
   (ASSEMBLY_S_SURF-23,ASSEMBLY_M_SURF-23)
          THE CONTACT CONSTRAINTS HAVE CONVERGED.

 AVERAGE FORCE                       321.       TIME AVG. FORCE        190.    
 LARGEST RESIDUAL FORCE             -2.83       AT NODE       3153   DOF  2
   INSTANCE: PART-2-1                                                                        
 LARGEST INCREMENT OF DISP.        -3.430E-08   AT NODE       1072   DOF  2
   INSTANCE: PART-2-1                                                                        
 LARGEST CORRECTION TO DISP.       -2.873E-08   AT NODE       3157   DOF  2
   INSTANCE: PART-2-1                                                                        
          FORCE     EQUILIBRIUM NOT ACHIEVED WITHIN TOLERANCE.

  NUMBER OF EQUATIONS =     22656     NUMBER OF RHS =    1
  NUMBER OF FLOATING PT. OPERATIONS =  1.87E+10

     CHECK POINT   START OF SOLVER    

     CHECK POINT  END OF SOLVER       

       ELAPSED USER TIME (SEC)      =   7.4000    
       ELAPSED SYSTEM TIME (SEC)    =  0.10000    
       ELAPSED TOTAL CPU TIME (SEC) =   7.5000    
       ELAPSED WALLCLOCK TIME (SEC) =          8

               CONVERGENCE CHECKS FOR EQUILIBRIUM ITERATION     3

   MAX. PENETRATION ERROR -947.571E-18   AT NODE PART-1-1.1094 OF CONTACT PAIR 
   (ASSEMBLY_S_SURF-23,ASSEMBLY_M_SURF-23)
   MAX. CONTACT FORCE ERROR -33.5000E-09  AT NODE PART-1-1.1094 OF CONTACT PAIR 
   (ASSEMBLY_S_SURF-23,ASSEMBLY_M_SURF-23)
          THE CONTACT CONSTRAINTS HAVE CONVERGED.

 AVERAGE FORCE                       321.       TIME AVG. FORCE        190.    
 LARGEST RESIDUAL FORCE             -9.12       AT NODE       3335   DOF  1
   INSTANCE: PART-2-1                                                                        
 LARGEST INCREMENT OF DISP.        -2.835E-07   AT NODE       3157   DOF  2
   INSTANCE: PART-2-1                                                                        
 LARGEST CORRECTION TO DISP.       -2.499E-07   AT NODE       3157   DOF  2
   INSTANCE: PART-2-1                                                                        
          FORCE     EQUILIBRIUM NOT ACHIEVED WITHIN TOLERANCE.

  NUMBER OF EQUATIONS =     22656     NUMBER OF RHS =    1
  NUMBER OF FLOATING PT. OPERATIONS =  1.87E+10

     CHECK POINT   START OF SOLVER    

     CHECK POINT  END OF SOLVER       

       ELAPSED USER TIME (SEC)      =   7.5000    
       ELAPSED SYSTEM TIME (SEC)    =   0.0000    
       ELAPSED TOTAL CPU TIME (SEC) =   7.5000    
       ELAPSED WALLCLOCK TIME (SEC) =          8

               CONVERGENCE CHECKS FOR EQUILIBRIUM ITERATION     4

   MAX. PENETRATION ERROR 1.17347E-15 AT NODE PART-1-1.1845 OF CONTACT PAIR 
   (ASSEMBLY_S_SURF-23,ASSEMBLY_M_SURF-23)
   MAX. CONTACT FORCE ERROR 44.0440E-09  AT NODE PART-1-1.1807 OF CONTACT PAIR 
   (ASSEMBLY_S_SURF-23,ASSEMBLY_M_SURF-23)
          THE CONTACT CONSTRAINTS HAVE CONVERGED.

 AVERAGE FORCE                       322.       TIME AVG. FORCE        190.    
 LARGEST RESIDUAL FORCE             -22.5       AT NODE          5   DOF  3
   INSTANCE: PART-2-1                                                                        
 LARGEST INCREMENT OF DISP.        -1.412E-06   AT NODE       3157   DOF  2
   INSTANCE: PART-2-1                                                                        
 LARGEST CORRECTION TO DISP.       -1.128E-06   AT NODE       3157   DOF  2
   INSTANCE: PART-2-1                                                                        
          FORCE     EQUILIBRIUM NOT ACHIEVED WITHIN TOLERANCE.
 

 ***NOTE: THE SOLUTION APPEARS TO BE DIVERGING. CONVERGENCE IS JUDGED UNLIKELY.
 

 ***ERROR: TOO MANY ATTEMPTS MADE FOR THIS INCREMENT

 ***ERROR: THE ANALYSIS HAS BEEN TERMINATED DUE TO PREVIOUS ERRORS. ALL OUTPUT 
           REQUESTS HAVE BEEN WRITTEN FOR THE LAST CONVERGED INCREMENT.



     ANALYSIS SUMMARY:
     TOTAL OF         39  INCREMENTS
                      15  CUTBACKS IN AUTOMATIC INCREMENTATION
                     203  ITERATIONS INCLUDING CONTACT ITERATIONS IF PRESENT
                     203  PASSES THROUGH THE EQUATION SOLVER OF WHICH 
                     203  INVOLVE MATRIX DECOMPOSITION, INCLUDING
                       0  DECOMPOSITION(S) OF THE MASS MATRIX
                       1  REORDERING OF EQUATIONS TO MINIMIZE WAVEFRONT
                       0  ADDITIONAL RESIDUAL EVALUATIONS FOR LINE SEARCHES
                       0  ADDITIONAL OPERATOR EVALUATIONS FOR LINE SEARCHES
                     412  WARNING MESSAGES DURING USER INPUT PROCESSING
                       0  WARNING MESSAGES DURING ANALYSIS
                       0  ANALYSIS WARNINGS ARE NUMERICAL PROBLEM MESSAGES
                       0  ANALYSIS WARNINGS ARE NEGATIVE EIGENVALUE MESSAGES
                       2  ERROR MESSAGES



     JOB TIME SUMMARY
       USER TIME (SEC)      =   2603.1    
       SYSTEM TIME (SEC)    =   22.500    
       TOTAL CPU TIME (SEC) =   2625.6    
       WALLCLOCK TIME (SEC) =       2948
