 Abaqus/Standard 3DEXPERIENCE R2018x                  DATE 18-Nov-2024 TIME 21:42:46
 SUMMARY OF JOB INFORMATION:
 STEP  INC ATT SEVERE EQUIL TOTAL  TOTAL      STEP       INC OF       DOF    IF
               DISCON ITERS ITERS  TIME/    TIME/LPF    TIME/LPF    MONITOR RIKS
               ITERS               FREQ
   1     1   1     1     1     2  0.0100     0.0100     0.01000   
   1     2   1     0     1     1  0.0200     0.0200     0.01000   
   1     3   1     0     2     2  0.0350     0.0350     0.01500   
   1     4   1     3     1     4  0.0575     0.0575     0.02250   
   1     5   1U    3     5     8  0.0575     0.0575     0.03375   
   1     5   2     2     1     3  0.0659     0.0659     0.008438  
   1     6   1     2     1     3  0.0786     0.0786     0.01266   
   1     7   1U    2     4     6  0.0786     0.0786     0.01898   
   1     7   2     2     1     3  0.0833     0.0833     0.004746  
   1     8   1     2     0     2  0.0905     0.0905     0.007119  
   1     9   1     1     2     3  0.101      0.101      0.01068   
   1    10   1     1     2     3  0.117      0.117      0.01602   
   1    11   1     1     2     3  0.141      0.141      0.02403   
   1    12   1     1     2     3  0.177      0.177      0.03604   
   1    13   1U    8     0     8  0.177      0.177      0.05406   
   1    13   2     1     3     4  0.191      0.191      0.01352   
   1    14   1     1     2     3  0.211      0.211      0.02027   
   1    15   1     1     2     3  0.241      0.241      0.03041   
   1    16   1U    2     5     7  0.241      0.241      0.04561   
   1    16   2     0     2     2  0.253      0.253      0.01140   
   1    17   1     1     1     2  0.270      0.270      0.01711   
   1    18   1U    1     5     6  0.270      0.270      0.02566   
   1    18   2U    0     5     5  0.270      0.270      0.006414  
   1    18   3U    0     5     5  0.270      0.270      0.001604  
   1    18   4     0     4     4  0.270      0.270      0.0004009 
   1    19   1     0     1     1  0.271      0.271      0.0006014 
   1    20   1     0     1     1  0.272      0.272      0.0009020 
   1    21   1     0     1     1  0.273      0.273      0.001353  
   1    22   1U    0     5     5  0.273      0.273      0.002030  
   1    22   2     0     1     1  0.274      0.274      0.0005074 
   1    23   1     0     1     1  0.274      0.274      0.0007611 
   1    24   1     0     1     1  0.276      0.276      0.001142  
   1    25   1     0     2     2  0.277      0.277      0.001712  
   1    26   1     1     1     2  0.280      0.280      0.002569  
   1    27   1     0     2     2  0.284      0.284      0.003853  
   1    28   1     1     1     2  0.290      0.290      0.005780  
   1    29   1     1     1     2  0.298      0.298      0.008669  
   1    30   1     1     2     3  0.311      0.311      0.01300   
   1    31   1U    2     4     6  0.311      0.311      0.01951   
   1    31   2U    5     0     5  0.311      0.311      0.004876  
   1    31   3     1     4     5  0.312      0.312      0.001219  
   1    32   1     1     1     2  0.314      0.314      0.001829  
   1    33   1     1     1     2  0.317      0.317      0.002743  
   1    34   1     1     1     2  0.321      0.321      0.004115  
   1    35   1     2     1     3  0.327      0.327      0.006172  
   1    36   1     9     3    12  0.337      0.337      0.009258  
   1    37   1     3     1     4  0.343      0.343      0.006943  
   1    38   1     1     3     4  0.350      0.350      0.006943  
   1    39   1U    5     4     9  0.350      0.350      0.01041   
   1    39   2U    2     5     7  0.350      0.350      0.002604  
   1    39   3U    0    10    10  0.350      0.350      0.0006509 
   1    39   4U    0     9     9  0.350      0.350      0.0003255 
   1    39   5U    0     4     4  0.350      0.350      8.137e-05 
                          
 THE ANALYSIS HAS NOT BEEN COMPLETED
