1

   Abaqus 3DEXPERIENCE R2018x                                  Date 19-Nov-2024   Time 01:19:36
   For use by INDIAN INSTITUTE OF TECHNOLOGY under license from Dassault Systemes or its subsidiary.



                         The Abaqus Software is a product of:

                           Dassault Systemes SIMULIA Corp.
                           1301 Atwood Avenue, Suite 101W
                              Johnston, RI 02919, USA
 


                   The Abaqus Software is available only under license
                   from Dassault Systemes or its subsidiary and may be
                   used or reproduced only in accordance with the terms
                   of such license.
 
                          On machine DESKTOP-M4VAJAV 
                          you are authorized to run
                          Abaqus/Standard until 09-Apr-2025

                          Your site id is: 200000000145531 


 
                    For assistance or any other information you may
                    obtain contact information for your local office
                    from the world wide web at:

                      http://www.3ds.com/products/simulia/locations/

 
                * * * * * * * * * * * * * * * * * * * * * * * * * * * * * * 
                *                                                         * 
                *                   *****************                     * 
                *                   *  N O T I C E  *                     * 
                *                   *****************                     * 
                *                                                         * 
                *                                                         * 
                *               Abaqus 3DEXPERIENCE R2018x                * 
                *                                                         * 
                *          BUILD ID: 2017_11_07-22.51.41 127140           * 
                *                                                         * 
                *                                                         * 
                *  Please make sure you are using                         * 
                *  release 3DEXPERIENCE R2018x manuals                    * 
                *  plus the notes accompanying this release.              * 
                *                                                         * 
                *                                                         * 
                *                                                         * 
                *                                                         * 
                *                                                         * 
                *   This program may not be used for commercial purposes  * 
                *           without payment of a commercial fee.          * 
                *                                                         * 
                * * * * * * * * * * * * * * * * * * * * * * * * * * * * * * 


 



     PROCESSING PART, INSTANCE, AND ASSEMBLY INFORMATION
   *******************************************************


     END PROCESSING PART, INSTANCE, AND ASSEMBLY INFORMATION
   ***********************************************************




     OPTIONS BEING PROCESSED
   ***************************


  *Heading
  *Node
  *Element, type=C3D8R
  *Nset, nset=ASSEMBLY_DEG32-1_SET-1
  *Nset, nset=ASSEMBLY_DEG32-1_SET-2
  *Elset, elset=ASSEMBLY_DEG32-1_SET-1
  *Elset, elset=ASSEMBLY_DEG32-1_SET-2
  *Nset, nset=ASSEMBLY_SET-1
  *Nset, nset=ASSEMBLY_SET-2
  *Elset, elset=ASSEMBLY_SET-1
  *Elset, elset=ASSEMBLY_SET-2
  *Elset, elset=ASSEMBLY__SURF-1_S3
  *Elset, elset=ASSEMBLY__SURF-1_S4
  *material, name=MATERIAL-1
  *elastic
  *solidsection, elset=ASSEMBLY_DEG32-1_SET-2, material=MATERIAL-1
  *solidsection, elset=ASSEMBLY_DEG32-1_SET-2, material=MATERIAL-1
  *surface, type=ELEMENT, name=ASSEMBLY_SURF-1
  *surface, type=ELEMENT, name=ASSEMBLY_SURF-1
  *boundary
  *boundary
  *boundary
  *boundary
  *surface, type=ELEMENT, name=ASSEMBLY_SURF-1
  *output, field
  *output, field, variable=PRESELECT
  *output, history, variable=PRESELECT
  *elementoutput, directions=YES
  *output, field
  *output, field, variable=PRESELECT
  *output, history, variable=PRESELECT
  *elementoutput, directions=YES
  *output, field
  *output, field, variable=PRESELECT
  *output, history, variable=PRESELECT
  *elementoutput, directions=YES
  
                               E L E M E N T   Q U A L I T Y  C H E C K S        
  
  
 ***NOTES: DISTORTED ISOPARAMETRIC ELEMENTS: ANGLE BETWEEN ISOPARAMETRIC LINES 
           IS LESS THAN 45 DEGREES OR GREATER THAN 135 DEGREES.
  
           TETRAHEDRAL QUALITY MEASURE: VOLUME OF TETRAHEDRON DIVIDED BY THE 
           VOLUME OF EQUILATERAL TETRAHEDRON WITH SAME CIRCUMSPHERE RADIUS; 
           0 FOR DEGENERATE TETRAHEDRON AND 1 FOR EQUILATERIAL TETRAHEDRON. IT 
           IS RECOMMENDED THAT THE TETRAHEDRAL QUALITY MEASURE BE GREATER THAN 
           0.02, THE MIN INTERIOR (DIHEDRAL) ANGLE BE GREATER THAN 10 DEGREES, 
           AND THE MAX INTERIOR (DIHEDRAL) ANGLE BE LESS THAN 160 DEGREES. 
  
           MODIFIED TETRAHEDRAL QUALITY MEASURE: ANGLES BETWEEN THE TWO LINE 
           SEGMENTS ON EACH EDGE; THE EDGES OF MODIFIED TETRAHEDRAL SHOULD BE 
           AS STRAIGHT AS POSSIBLE. IT IS RECOMMENDED THAT THE ANGLE BETWEEN 
           THE TWO LINE SEGMENTS ON EACH EDGE IS BETWEEN 160 AND 180 DEGREES. 
  
           TRIANGULAR QUALITY MEASURE: AREA OF TRIANGLE DIVIDED BY THE AREA OF 
           EQUILATERAL TRIANGLE WITH SAME CIRCUMCIRCLE RADIUS; 0 FOR DEGENERATE 
           TRIANGLE AND 1 FOR EQUILATERAL TRIANGLE. IT IS RECOMMENDED THAT THE
           TRIANGULAR QUALITY MEASURE BE GREATER THAN 0.01, THE MIN INTERIOR 
           ANGLE BE GREATER THAN 10 DEGREES, AND THE MAX INTERIOR ANGLE BE LESS 
           THAN 160 DEGREES. 
  
           NODAL ADJUSTMENTS ARISING FROM CONTACT INTERACTIONS AND/OR TIE 
           CONSTRAINTS CAN CAUSE SEVERE ELEMENT DISTORTION. IT MAY BE NECESSARY 
           TO REMESH IN ORDER TO REDUCE THE AMOUNT OF ADJUSTMENT. 

 ***WARNING: 221 elements are distorted. Either the isoparametric angles are 
             out of the suggested limits or the triangular or tetrahedral 
             quality measure is bad. The elements have been identified in 
             element set WarnElemDistorted.
  
 --------------------------------------------------------------------------------
 Distorted isoparametric elements
  
      Element       Min/max angle   Adjusted nodes 
 ----------------- ---------------- -------------- 
      DEG32-1.9514          44.0878       NO       
      DEG32-1.9524          44.1478       NO       
      DEG32-1.9534          44.2166       NO       
      DEG32-1.9544          44.2591       NO       
      DEG32-1.9554          44.2781       NO       
      DEG32-1.9564          44.2843       NO       
      DEG32-1.9574          44.2852       NO       
      DEG32-1.9584          44.2847       NO       
      DEG32-1.9594          44.2841       NO       
      DEG32-1.9604          44.2838       NO       
      DEG32-1.9614          44.2836       NO       
      DEG32-1.9624          44.2835       NO       
      DEG32-1.9634          44.2835       NO       
      DEG32-1.9644          44.2835       NO       
      DEG32-1.9654          44.2835       NO       
      DEG32-1.9664          44.2835       NO       
      DEG32-1.9674          44.2835       NO       
      DEG32-1.9684          44.2835       NO       
      DEG32-1.9694          44.2835       NO       
      DEG32-1.9704          44.2825       NO       
      DEG32-1.9714          44.2763       NO       
      DEG32-1.9724          44.2626       NO       
      DEG32-1.9734          44.2507       NO       
      DEG32-1.9744          44.3708       NO       
      DEG32-1.9753          44.5074       NO       
      DEG32-1.9754          40.5547       NO       
      DEG32-1.9763          44.5246       NO       
      DEG32-1.9764          40.6702       NO       
      DEG32-1.9773          44.6031       NO       
      DEG32-1.9774          40.7631       NO       
      DEG32-1.9783          44.6599       NO       
      DEG32-1.9784            40.82       NO       
      DEG32-1.9793          44.6882       NO       
      DEG32-1.9794          40.8485       NO       
      DEG32-1.9803          44.6989       NO       
      DEG32-1.9804          40.8605       NO       
      DEG32-1.9813          44.7019       NO       
      DEG32-1.9814          40.8647       NO       
      DEG32-1.9823          44.7023       NO       
      DEG32-1.9824          40.8658       NO       
      DEG32-1.9833          44.7019       NO       
      DEG32-1.9834          40.8659       NO       
      DEG32-1.9843          44.7015       NO       
      DEG32-1.9844          40.8658       NO       
      DEG32-1.9853          44.7013       NO       
      DEG32-1.9854          40.8658       NO       
      DEG32-1.9863          44.7012       NO       
      DEG32-1.9864          40.8658       NO       
      DEG32-1.9873          44.7011       NO       
      DEG32-1.9874          40.8658       NO       
      DEG32-1.9883          44.7011       NO       
      DEG32-1.9884          40.8658       NO       
      DEG32-1.9893          44.7011       NO       
      DEG32-1.9894          40.8658       NO       
      DEG32-1.9903          44.7011       NO       
      DEG32-1.9904          40.8658       NO       
      DEG32-1.9913          44.7011       NO       
      DEG32-1.9914          40.8658       NO       
      DEG32-1.9923          44.7011       NO       
      DEG32-1.9924          40.8658       NO       
      DEG32-1.9933          44.7006       NO       
      DEG32-1.9934          40.8652       NO       
      DEG32-1.9943          44.6967       NO       
      DEG32-1.9944          40.8616       NO       
      DEG32-1.9953          44.6828       NO       
      DEG32-1.9954          40.8518       NO       
      DEG32-1.9963          44.6551       NO       
      DEG32-1.9964          40.8394       NO       
      DEG32-1.9973          44.6178       NO       
      DEG32-1.9974          40.8417       NO       
      DEG32-1.9983          44.7145       NO       
      DEG32-1.9984          41.0354       NO       
     DEG32-1.15745          44.5626       NO       
     DEG32-1.15746          44.6497       NO       
     DEG32-1.15747          44.6725       NO       
     DEG32-1.15748          44.6776       NO       
     DEG32-1.15749          44.6785       NO       
     DEG32-1.15750          44.6786       NO       
     DEG32-1.15751          44.6787       NO       
     DEG32-1.15752          44.6787       NO       
     DEG32-1.15753          44.6787       NO       
     DEG32-1.15754          44.6787       NO       
     DEG32-1.15755          44.6787       NO       
     DEG32-1.15756          44.6787       NO       
     DEG32-1.15757          44.6787       NO       
     DEG32-1.15758          44.6787       NO       
     DEG32-1.15759          44.6787       NO       
     DEG32-1.15760          44.6787       NO       
     DEG32-1.15761          44.6787       NO       
     DEG32-1.15762          44.6787       NO       
     DEG32-1.15763          44.6787       NO       
     DEG32-1.15764          44.6776       NO       
     DEG32-1.15765          44.6623       NO       
     DEG32-1.15766          44.5929       NO       
     DEG32-1.15767          44.4687       NO       
     DEG32-1.15768          44.5107       NO       
     DEG32-1.15985           41.337       NO       
     DEG32-1.15986          41.4841       NO       
     DEG32-1.15987          41.5213       NO       
     DEG32-1.15988          41.5295       NO       
     DEG32-1.15989           41.531       NO       
     DEG32-1.15990          41.5311       NO       
     DEG32-1.15991          41.5311       NO       
     DEG32-1.15992           41.531       NO       
     DEG32-1.15993           41.531       NO       
     DEG32-1.15994           41.531       NO       
     DEG32-1.15995           41.531       NO       
     DEG32-1.15996           41.531       NO       
     DEG32-1.15997           41.531       NO       
     DEG32-1.15998           41.531       NO       
     DEG32-1.15999           41.531       NO       
     DEG32-1.16000           41.531       NO       
     DEG32-1.16001           41.531       NO       
     DEG32-1.16002           41.531       NO       
     DEG32-1.16003          41.5306       NO       
     DEG32-1.16004          41.5235       NO       
     DEG32-1.16005            41.48       NO       
     DEG32-1.16006          41.3479       NO       
     DEG32-1.16007           41.157       NO       
     DEG32-1.16008          41.2076       NO       
     DEG32-1.16009          44.9268       NO       
     DEG32-1.16030          44.8596       NO       
     DEG32-1.16031          44.6972       NO       
     DEG32-1.16032           44.894       NO       
     DEG32-1.18961          36.9402       NO       
     DEG32-1.18962          41.3185       NO       
     DEG32-1.18971          37.0772       NO       
     DEG32-1.18972          41.5878       NO       
     DEG32-1.18981          37.3165       NO       
     DEG32-1.18982          42.0391       NO       
     DEG32-1.18991          37.4524       NO       
     DEG32-1.18992          42.3075       NO       
     DEG32-1.19001          37.4929       NO       
     DEG32-1.19002          42.3935       NO       
     DEG32-1.19011          37.4989       NO       
     DEG32-1.19012          42.4077       NO       
     DEG32-1.19021          37.4992       NO       
     DEG32-1.19022          42.4086       NO       
     DEG32-1.19031          37.4992       NO       
     DEG32-1.19032          42.4086       NO       
     DEG32-1.19041          37.4992       NO       
     DEG32-1.19042          42.4086       NO       
     DEG32-1.19051          37.4992       NO       
     DEG32-1.19052          42.4086       NO       
     DEG32-1.19061          37.4992       NO       
     DEG32-1.19062          42.4086       NO       
     DEG32-1.19071          37.4992       NO       
     DEG32-1.19072          42.4086       NO       
     DEG32-1.19081          37.4992       NO       
     DEG32-1.19082          42.4086       NO       
     DEG32-1.19091          37.4992       NO       
     DEG32-1.19092          42.4086       NO       
     DEG32-1.19101          37.4992       NO       
     DEG32-1.19102          42.4086       NO       
     DEG32-1.19111          37.4992       NO       
     DEG32-1.19112          42.4086       NO       
     DEG32-1.19121          37.4993       NO       
     DEG32-1.19122          42.4087       NO       
     DEG32-1.19131          37.4993       NO       
     DEG32-1.19132          42.4088       NO       
     DEG32-1.19141          37.4994       NO       
     DEG32-1.19142          42.4091       NO       
     DEG32-1.19151          37.4996       NO       
     DEG32-1.19152          42.4098       NO       
     DEG32-1.19161          37.4995       NO       
     DEG32-1.19162          42.4109       NO       
     DEG32-1.19171          37.4971       NO       
     DEG32-1.19172          42.4105       NO       
     DEG32-1.19181          37.4827       NO       
     DEG32-1.19182          42.3978       NO       
     DEG32-1.19191           37.426       NO       
     DEG32-1.19192          42.3388       NO       
     DEG32-1.19657          37.1299       NO       
     DEG32-1.19658          36.8577       NO       
     DEG32-1.19659          36.8393       NO       
     DEG32-1.19660          36.8469       NO       
     DEG32-1.19661          36.8552       NO       
     DEG32-1.19662          36.8584       NO       
     DEG32-1.19663          36.8588       NO       
     DEG32-1.19664          36.8588       NO       
     DEG32-1.19665          36.8588       NO       
     DEG32-1.19666          36.8588       NO       
     DEG32-1.19667          36.8588       NO       
     DEG32-1.19668          36.8588       NO       
     DEG32-1.19669          36.8588       NO       
     DEG32-1.19670          36.8588       NO       
     DEG32-1.19671          36.8588       NO       
     DEG32-1.19672          36.8587       NO       
     DEG32-1.19673          36.8582       NO       
     DEG32-1.19674          36.8567       NO       
     DEG32-1.19675           36.852       NO       
     DEG32-1.19676          36.8396       NO       
     DEG32-1.19677          36.8099       NO       
     DEG32-1.19678           36.747       NO       
     DEG32-1.19679          36.6286       NO       
     DEG32-1.19680          36.4289       NO       
     DEG32-1.19681          41.8811       NO       
     DEG32-1.19682          41.4542       NO       
     DEG32-1.19683          41.4526       NO       
     DEG32-1.19684            41.48       NO       
     DEG32-1.19685           41.499       NO       
     DEG32-1.19686           41.505       NO       
     DEG32-1.19687          41.5057       NO       
     DEG32-1.19688          41.5057       NO       
     DEG32-1.19689          41.5057       NO       
     DEG32-1.19690          41.5057       NO       
     DEG32-1.19691          41.5057       NO       
     DEG32-1.19692          41.5057       NO       
     DEG32-1.19693          41.5057       NO       
     DEG32-1.19694          41.5057       NO       
     DEG32-1.19695          41.5057       NO       
     DEG32-1.19696          41.5056       NO       
     DEG32-1.19697          41.5049       NO       
     DEG32-1.19698          41.5023       NO       
     DEG32-1.19699          41.4939       NO       
     DEG32-1.19700          41.4708       NO       
     DEG32-1.19701          41.4133       NO       
     DEG32-1.19702          41.2872       NO       
     DEG32-1.19703          41.0461       NO       
     DEG32-1.19704          40.6503       NO       
     DEG32-1.19728          44.7225       NO       
  
  
  *Step, name=Step-1, nlgeom=NO
  *output, field
  *output, field, variable=PRESELECT
  *output, history, variable=PRESELECT
  *Step, name=Step-1, nlgeom=NO
  *Step, name=Step-1, nlgeom=NO
  *static
  *boundary
  *boundary
  *dsload
  *output, field
  *nodeoutput
  *elementoutput, directions=YES
  *output, field, variable=PRESELECT
  *output, history, variable=PRESELECT
  *endstep
  *Step, name=Step-1, nlgeom=NO
  *static
  *boundary
  *boundary
  *endstep

     - (RAMP) OR (STEP) - INDICATE USE OF DEFAULT AMPLITUDES ASSOCIATED WITH THE STEP



                            P R O B L E M   S I Z E


          NUMBER OF ELEMENTS IS                                 20352
          NUMBER OF NODES IS                                    23716
          NUMBER OF NODES DEFINED BY THE USER                   23716
          TOTAL NUMBER OF VARIABLES IN THE MODEL                71148
          (DEGREES OF FREEDOM PLUS MAX NO. OF ANY LAGRANGE MULTIPLIER
           VARIABLES. INCLUDE *PRINT,SOLVE=YES TO GET THE ACTUAL NUMBER.)



                              END OF USER INPUT PROCESSING



     JOB TIME SUMMARY
       USER TIME (SEC)      =   4.1000    
       SYSTEM TIME (SEC)    =   1.1000    
       TOTAL CPU TIME (SEC) =   5.2000    
       WALLCLOCK TIME (SEC) =          6
1

   Abaqus 3DEXPERIENCE R2018x                                  Date 19-Nov-2024   Time 01:19:46
   For use by INDIAN INSTITUTE OF TECHNOLOGY under license from Dassault Systemes or its subsidiary.

                                                                                               STEP    1  INCREMENT    1
                                                                                          TIME COMPLETED IN THIS STEP   0.00    


                        S T E P       1     S T A T I C   A N A L Y S I S


                                                                                          

     AUTOMATIC TIME CONTROL WITH -
          A SUGGESTED INITIAL TIME INCREMENT OF                1.000E-02
          AND A TOTAL TIME PERIOD OF                            1.00    
          THE MINIMUM TIME INCREMENT ALLOWED IS                1.000E-05
          THE MAXIMUM TIME INCREMENT ALLOWED IS                 1.00    

     LINEAR EQUATION SOLVER TYPE         DIRECT SPARSE
  
                   M E M O R Y   E S T I M A T E
  
 PROCESS      FLOATING PT       MINIMUM MEMORY        MEMORY TO
              OPERATIONS           REQUIRED          MINIMIZE I/O
             PER ITERATION           (MB)               (MB)
  
     1          5.21E+10               82                515
  
 NOTE:
      (1) SINCE ABAQUS DOES NOT PRE-ALLOCATE MEMORY AND ONLY ALLOCATES MEMORY AS NEEDED DURING THE ANALYSIS,
          THE MEMORY REQUIREMENT PRINTED HERE CAN ONLY BE VIEWED AS A GENERAL GUIDELINE BASED ON THE BEST
          KNOWLEDGE AVAILABLE AT THE BEGINNING OF A STEP BEFORE THE SOLUTION PROCESS HAS BEGUN.
      (2) THE ESTIMATE IS NORMALLY UPDATED AT THE BEGINNING OF EVERY STEP. IT IS THE MAXIMUM VALUE OF THE
          ESTIMATE FROM THE CURRENT STEP TO THE LAST STEP OF THE ANALYSIS, WITH UNSYMMETRIC SOLUTION TAKEN
          INTO ACCOUNT IF APPLICABLE. 
      (3) SINCE THE ESTIMATE IS BASED ON THE ACTIVE DEGREES OF FREEDOM IN THE FIRST ITERATION OF THE 
          CURRENT STEP, THE MEMORY ESTIMATE MIGHT BE SIGNIFICANTLY DIFFERENT THAN ACTUAL USAGE FOR 
          PROBLEMS WITH SUBSTANTIAL CHANGES IN ACTIVE DEGREES OF FREEDOM BETWEEN STEPS (OR EVEN WITHIN
          THE SAME STEP). EXAMPLES ARE: PROBLEMS WITH SIGNIFICANT CONTACT CHANGES, PROBLEMS WITH MODEL
          CHANGE, PROBLEMS WITH BOTH STATIC STEP AND STEADY STATE DYNAMIC PROCEDURES WHERE ACOUSTIC 
          ELEMENTS WILL ONLY BE ACTIVATED IN THE STEADY STATE DYNAMIC STEPS.
      (4) FOR MULTI-PROCESS EXECUTION, THE ESTIMATED VALUE OF FLOATING POINT OPERATIONS FOR EACH PROCESS
          IS BASED ON AN INITIAL SCHEDULING OF OPERATIONS AND MIGHT NOT REFLECT THE ACTUAL FLOATING 
          POINT OPERATIONS COMPLETED ON EACH PROCESS. OPERATIONS ARE DYNAMICALLY BALANCED DURING EXECUTION, 
          SO THE ACTUAL BALANCE OF OPERATIONS BETWEEN PROCESSES IS EXPECTED TO BE BETTER THAN THE ESTIMATE
          PRINTED HERE.
      (5) THE UPPER LIMIT OF MEMORY THAT CAN BE ALLOCATED BY ABAQUS WILL IN GENERAL DEPEND ON THE VALUE OF
          THE "MEMORY" PARAMETER AND THE AMOUNT OF PHYSICAL MEMORY AVAILABLE ON THE MACHINE. PLEASE SEE
          THE "ABAQUS ANALYSIS USER'S MANUAL" FOR MORE DETAILS. THE ACTUAL USAGE OF MEMORY AND OF DISK
          SPACE FOR SCRATCH DATA WILL DEPEND ON THIS UPPER LIMIT AS WELL AS THE MEMORY REQUIRED TO MINIMIZE
          I/O. IF THE MEMORY UPPER LIMIT IS GREATER THAN THE MEMORY REQUIRED TO MINIMIZE I/O, THEN THE ACTUAL
          MEMORY USAGE WILL BE CLOSE TO THE ESTIMATED "MEMORY TO MINIMIZE I/O" VALUE, AND THE SCRATCH DISK
          USAGE WILL BE CLOSE-TO-ZERO; OTHERWISE, THE ACTUAL MEMORY USED WILL BE CLOSE TO THE PREVIOUSLY
          MENTIONED MEMORY LIMIT, AND THE SCRATCH DISK USAGE WILL BE ROUGHLY PROPORTIONAL TO THE DIFFERENCE
          BETWEEN THE ESTIMATED "MEMORY TO MINIMIZE I/O" AND THE MEMORY UPPER LIMIT. HOWEVER ACCURATE
          ESTIMATE OF THE SCRATCH DISK SPACE IS NOT POSSIBLE.
      (6) USING "*RESTART, WRITE" CAN GENERATE A LARGE AMOUNT OF DATA WRITTEN IN THE WORK DIRECTORY.


          THE ANALYSIS HAS BEEN COMPLETED



                              ANALYSIS COMPLETE
                              WITH      1 WARNING MESSAGES ON THE DAT FILE



     JOB TIME SUMMARY
       USER TIME (SEC)      =   63.400    
       SYSTEM TIME (SEC)    =   1.3000    
       TOTAL CPU TIME (SEC) =   64.700    
       WALLCLOCK TIME (SEC) =         66
