 Abaqus/Standard 3DEXPERIENCE R2018x                  DATE 18-Nov-2024 TIME 22:40:04
 SUMMARY OF JOB INFORMATION:
 STEP  INC ATT SEVERE EQUIL TOTAL  TOTAL      STEP       INC OF       DOF    IF
               DISCON ITERS ITERS  TIME/    TIME/LPF    TIME/LPF    MONITOR RIKS
               ITERS               FREQ
   1     1   1     1     1     2  0.0100     0.0100     0.01000   
   1     2   1     0     1     1  0.0200     0.0200     0.01000   
   1     3   1     0     1     1  0.0350     0.0350     0.01500   
   1     4   1     0     2     2  0.0575     0.0575     0.02250   
   1     5   1     2     2     4  0.0912     0.0912     0.03375   
   1     6   1     3     2     5  0.142      0.142      0.05063   
   1     7   1U    2     5     7  0.142      0.142      0.07594   
   1     7   2     2     1     3  0.161      0.161      0.01898   
   1     8   1     1     2     3  0.189      0.189      0.02848   
   1     9   1U    1     4     5  0.189      0.189      0.04271   
   1     9   2     2     1     3  0.200      0.200      0.01068   
   1    10   1     1     2     3  0.216      0.216      0.01602   
   1    11   1U    1     4     5  0.216      0.216      0.02403   
   1    11   2     0     2     2  0.222      0.222      0.006007  
   1    12   1     1     1     2  0.231      0.231      0.009010  
   1    13   1     1     1     2  0.245      0.245      0.01352   
   1    14   1     1     2     3  0.265      0.265      0.02027   
   1    15   1     1     3     4  0.295      0.295      0.03041   
   1    16   1U    2     5     7  0.295      0.295      0.04561   
   1    16   2     1     2     3  0.307      0.307      0.01140   
   1    17   1     1     1     2  0.324      0.324      0.01711   
   1    18   1     1     2     3  0.349      0.349      0.02566   
   1    19   1     1     2     3  0.388      0.388      0.03849   
   1    20   1U    2     5     7  0.388      0.388      0.05773   
   1    20   2     1     1     2  0.402      0.402      0.01443   
   1    21   1     1     1     2  0.424      0.424      0.02165   
   1    22   1U    1     4     5  0.424      0.424      0.03247   
   1    22   2     0     2     2  0.432      0.432      0.008118  
   1    23   1     0     2     2  0.444      0.444      0.01218   
   1    24   1     1     1     2  0.463      0.463      0.01827   
   1    25   1U    1     5     6  0.463      0.463      0.02740   
   1    25   2     1     1     2  0.469      0.469      0.006850  
   1    26   1U    1     5     6  0.469      0.469      0.01027   
   1    26   2     1     1     2  0.472      0.472      0.002569  
   1    27   1     1     1     2  0.476      0.476      0.003853  
   1    28   1     0     2     2  0.482      0.482      0.005780  
   1    29   1     0     2     2  0.490      0.490      0.008669  
   1    30   1     1     1     2  0.503      0.503      0.01300   
   1    31   1U    2     4     6  0.503      0.503      0.01951   
   1    31   2     1     1     2  0.508      0.508      0.004876  
   1    32   1U    1     5     6  0.508      0.508      0.007315  
   1    32   2     0     2     2  0.510      0.510      0.001829  
   1    33   1     0     1     1  0.513      0.513      0.002743  
   1    34   1     1     1     2  0.517      0.517      0.004115  
   1    35   1U    3     4     7  0.517      0.517      0.006172  
   1    35   2     1     1     2  0.518      0.518      0.001543  
   1    36   1     0     2     2  0.521      0.521      0.002314  
   1    37   1     0     2     2  0.524      0.524      0.003472  
   1    38   1     1     2     3  0.529      0.529      0.005207  
                          
 THE ANALYSIS HAS NOT BEEN COMPLETED
