1

   Abaqus 3DEXPERIENCE R2018x                                  Date 18-Nov-2024   Time 22:39:23
   For use by INDIAN INSTITUTE OF TECHNOLOGY under license from Dassault Systemes or its subsidiary.



                         The Abaqus Software is a product of:

                           Dassault Systemes SIMULIA Corp.
                           1301 Atwood Avenue, Suite 101W
                              Johnston, RI 02919, USA
 


                   The Abaqus Software is available only under license
                   from Dassault Systemes or its subsidiary and may be
                   used or reproduced only in accordance with the terms
                   of such license.
 
                          On machine DESKTOP-M4VAJAV 
                          you are authorized to run
                          Abaqus/Standard until 09-Apr-2025

                          Your site id is: 200000000145531 


 
                    For assistance or any other information you may
                    obtain contact information for your local office
                    from the world wide web at:

                      http://www.3ds.com/products/simulia/locations/

 
                * * * * * * * * * * * * * * * * * * * * * * * * * * * * * * 
                *                                                         * 
                *                   *****************                     * 
                *                   *  N O T I C E  *                     * 
                *                   *****************                     * 
                *                                                         * 
                *                                                         * 
                *               Abaqus 3DEXPERIENCE R2018x                * 
                *                                                         * 
                *          BUILD ID: 2017_11_07-22.51.41 127140           * 
                *                                                         * 
                *                                                         * 
                *  Please make sure you are using                         * 
                *  release 3DEXPERIENCE R2018x manuals                    * 
                *  plus the notes accompanying this release.              * 
                *                                                         * 
                *                                                         * 
                *                                                         * 
                *                                                         * 
                *                                                         * 
                *   This program may not be used for commercial purposes  * 
                *           without payment of a commercial fee.          * 
                *                                                         * 
                * * * * * * * * * * * * * * * * * * * * * * * * * * * * * * 


 



     PROCESSING PART, INSTANCE, AND ASSEMBLY INFORMATION
   *******************************************************


     END PROCESSING PART, INSTANCE, AND ASSEMBLY INFORMATION
   ***********************************************************




     OPTIONS BEING PROCESSED
   ***************************


  *Heading
  *Node
  *Element, type=C3D8R
  *Nset, nset=ASSEMBLY_PART-1-1_SET-1
  *Elset, elset=ASSEMBLY_PART-1-1_SET-1
  *Node
  *Element, type=C3D8R
  *Nset, nset=ASSEMBLY_PART-2-1_SET-1
  *Elset, elset=ASSEMBLY_PART-2-1_SET-1
  *Nset, nset=ASSEMBLY_SET-20
  *Nset, nset=ASSEMBLY_SET-21
  *Elset, elset=ASSEMBLY_SET-20
  *Elset, elset=ASSEMBLY_SET-21
  *Elset, elset=ASSEMBLY__M_SURF-23_S1
  *Elset, elset=ASSEMBLY__M_SURF-23_S2
  *Elset, elset=ASSEMBLY__M_SURF-23_S3
  *Elset, elset=ASSEMBLY__M_SURF-23_S4
  *Elset, elset=ASSEMBLY__M_SURF-25_S1
  *Elset, elset=ASSEMBLY__M_SURF-25_S2
  *Elset, elset=ASSEMBLY__M_SURF-25_S3
  *Elset, elset=ASSEMBLY__M_SURF-25_S4
  *Elset, elset=ASSEMBLY__SURF-27_S4
  *Elset, elset=ASSEMBLY__S_SURF-23_S3
  *Elset, elset=ASSEMBLY__S_SURF-23_S4
  *Elset, elset=ASSEMBLY__S_SURF-23_S6
  *Elset, elset=ASSEMBLY__S_SURF-25_S3
  *Elset, elset=ASSEMBLY__S_SURF-25_S4
  *Elset, elset=ASSEMBLY__S_SURF-25_S6
  *material, name=MATERIAL-1
  *density
  *elastic
  *mohrcoulomb
  *mohrcoulombhardening
  *material, name=MATERIAL-2
  *density
  *elastic
  *mohrcoulomb
  *mohrcoulombhardening
  *solidsection, elset=ASSEMBLY_PART-1-1_SET-1, material=MATERIAL-1
  *solidsection, elset=ASSEMBLY_PART-2-1_SET-1, material=MATERIAL-2
  *solidsection, elset=ASSEMBLY_PART-1-1_SET-1, material=MATERIAL-1
  *solidsection, elset=ASSEMBLY_PART-2-1_SET-1, material=MATERIAL-2
  *contactpair, interaction=INTPROP-1, type=SURFACETOSURFACE
  *tie, name=ASSEMBLY_CONSTRAINT-1, adjust=YES
  *surface, type=ELEMENT, name=ASSEMBLY_SURF-27
  *surface, type=ELEMENT, name=ASSEMBLY_M_SURF-23
  *surface, type=ELEMENT, name=ASSEMBLY_M_SURF-25
  *surface, type=ELEMENT, name=ASSEMBLY_S_SURF-23
  *surface, type=ELEMENT, name=ASSEMBLY_S_SURF-25
  *contactpair, interaction=INTPROP-1, type=SURFACETOSURFACE
  *tie, name=ASSEMBLY_CONSTRAINT-1, adjust=YES
  *surface, type=ELEMENT, name=ASSEMBLY_SURF-27
  *surface, type=ELEMENT, name=ASSEMBLY_M_SURF-23
  *surface, type=ELEMENT, name=ASSEMBLY_M_SURF-25
  *surface, type=ELEMENT, name=ASSEMBLY_S_SURF-23
  *surface, type=ELEMENT, name=ASSEMBLY_S_SURF-25
  *surface, type=ELEMENT, name=ASSEMBLY_SURF-27
  *surface, type=ELEMENT, name=ASSEMBLY_M_SURF-23
  *surface, type=ELEMENT, name=ASSEMBLY_M_SURF-25
  *surface, type=ELEMENT, name=ASSEMBLY_S_SURF-23
  *surface, type=ELEMENT, name=ASSEMBLY_S_SURF-25
  *contactpair, interaction=INTPROP-1, type=SURFACETOSURFACE
  *surfaceinteraction, name=INTPROP-1
  *contactpair, interaction=INTPROP-1, type=SURFACETOSURFACE
  *contactpair, interaction=INTPROP-1, type=SURFACETOSURFACE
  *tie, name=ASSEMBLY_CONSTRAINT-1, adjust=YES
  *tie, name=ASSEMBLY_CONSTRAINT-1, adjust=YES
  *surfaceinteraction, name=INTPROP-1
  *friction, sliptolerance=0.005
  *surfaceinteraction, name=INTPROP-1
  *boundary
  *boundary
  *boundary
  *boundary
  *tie, name=ASSEMBLY_CONSTRAINT-1, adjust=YES

 ***WARNING: Abaqus WILL NOT ADJUST THE SURFACE NORMAL FOR THE SYMMETRY PLANE 
             AT NODE 6 INSTANCE PART-2-1 OF SURFACE ASSEMBLY_M_SURF-25. THE 
             MESH MAY BE VERY COARSE OR THE SURFACE MAY BE UNTRIMMED AT THE 
             SYMMETRY PLANE. PLEASE USE THE *NORMAL OPTION TO SPECIFY THE 
             PROPER SURFACE NORMAL.

 ***WARNING: Abaqus WILL NOT ADJUST THE SURFACE NORMAL FOR THE SYMMETRY PLANE 
             AT NODE 7 INSTANCE PART-2-1 OF SURFACE ASSEMBLY_M_SURF-25. THE 
             MESH MAY BE VERY COARSE OR THE SURFACE MAY BE UNTRIMMED AT THE 
             SYMMETRY PLANE. PLEASE USE THE *NORMAL OPTION TO SPECIFY THE 
             PROPER SURFACE NORMAL.

 ***WARNING: Abaqus WILL NOT ADJUST THE SURFACE NORMAL FOR THE SYMMETRY PLANE 
             AT NODE 12 INSTANCE PART-2-1 OF SURFACE ASSEMBLY_M_SURF-25. THE 
             MESH MAY BE VERY COARSE OR THE SURFACE MAY BE UNTRIMMED AT THE 
             SYMMETRY PLANE. PLEASE USE THE *NORMAL OPTION TO SPECIFY THE 
             PROPER SURFACE NORMAL.

 ***WARNING: Abaqus WILL NOT ADJUST THE SURFACE NORMAL FOR THE SYMMETRY PLANE 
             AT NODE 13 INSTANCE PART-2-1 OF SURFACE ASSEMBLY_M_SURF-25. THE 
             MESH MAY BE VERY COARSE OR THE SURFACE MAY BE UNTRIMMED AT THE 
             SYMMETRY PLANE. PLEASE USE THE *NORMAL OPTION TO SPECIFY THE 
             PROPER SURFACE NORMAL.

 ***WARNING: Abaqus WILL NOT ADJUST THE SURFACE NORMAL FOR THE SYMMETRY PLANE 
             AT NODE 20 INSTANCE PART-2-1 OF SURFACE ASSEMBLY_M_SURF-25. THE 
             MESH MAY BE VERY COARSE OR THE SURFACE MAY BE UNTRIMMED AT THE 
             SYMMETRY PLANE. PLEASE USE THE *NORMAL OPTION TO SPECIFY THE 
             PROPER SURFACE NORMAL.

 ***WARNING: Abaqus WILL NOT ADJUST THE SURFACE NORMAL FOR THE SYMMETRY PLANE 
             AT NODE 22 INSTANCE PART-2-1 OF SURFACE ASSEMBLY_M_SURF-25. THE 
             MESH MAY BE VERY COARSE OR THE SURFACE MAY BE UNTRIMMED AT THE 
             SYMMETRY PLANE. PLEASE USE THE *NORMAL OPTION TO SPECIFY THE 
             PROPER SURFACE NORMAL.

 ***WARNING: Abaqus WILL NOT ADJUST THE SURFACE NORMAL FOR THE SYMMETRY PLANE 
             AT NODE 23 INSTANCE PART-2-1 OF SURFACE ASSEMBLY_M_SURF-25. THE 
             MESH MAY BE VERY COARSE OR THE SURFACE MAY BE UNTRIMMED AT THE 
             SYMMETRY PLANE. PLEASE USE THE *NORMAL OPTION TO SPECIFY THE 
             PROPER SURFACE NORMAL.

 ***WARNING: Abaqus WILL NOT ADJUST THE SURFACE NORMAL FOR THE SYMMETRY PLANE 
             AT NODE 27 INSTANCE PART-2-1 OF SURFACE ASSEMBLY_M_SURF-25. THE 
             MESH MAY BE VERY COARSE OR THE SURFACE MAY BE UNTRIMMED AT THE 
             SYMMETRY PLANE. PLEASE USE THE *NORMAL OPTION TO SPECIFY THE 
             PROPER SURFACE NORMAL.

 ***WARNING: Abaqus WILL NOT ADJUST THE SURFACE NORMAL FOR THE SYMMETRY PLANE 
             AT NODE 30 INSTANCE PART-2-1 OF SURFACE ASSEMBLY_M_SURF-25. THE 
             MESH MAY BE VERY COARSE OR THE SURFACE MAY BE UNTRIMMED AT THE 
             SYMMETRY PLANE. PLEASE USE THE *NORMAL OPTION TO SPECIFY THE 
             PROPER SURFACE NORMAL.

 ***WARNING: Abaqus WILL NOT ADJUST THE SURFACE NORMAL FOR THE SYMMETRY PLANE 
             AT NODE 31 INSTANCE PART-2-1 OF SURFACE ASSEMBLY_M_SURF-25. THE 
             MESH MAY BE VERY COARSE OR THE SURFACE MAY BE UNTRIMMED AT THE 
             SYMMETRY PLANE. PLEASE USE THE *NORMAL OPTION TO SPECIFY THE 
             PROPER SURFACE NORMAL.

 ***WARNING: Abaqus WILL NOT ADJUST THE SURFACE NORMAL FOR THE SYMMETRY PLANE 
             AT NODE 33 INSTANCE PART-2-1 OF SURFACE ASSEMBLY_M_SURF-25. THE 
             MESH MAY BE VERY COARSE OR THE SURFACE MAY BE UNTRIMMED AT THE 
             SYMMETRY PLANE. PLEASE USE THE *NORMAL OPTION TO SPECIFY THE 
             PROPER SURFACE NORMAL.

 ***WARNING: Abaqus WILL NOT ADJUST THE SURFACE NORMAL FOR THE SYMMETRY PLANE 
             AT NODE 35 INSTANCE PART-2-1 OF SURFACE ASSEMBLY_M_SURF-25. THE 
             MESH MAY BE VERY COARSE OR THE SURFACE MAY BE UNTRIMMED AT THE 
             SYMMETRY PLANE. PLEASE USE THE *NORMAL OPTION TO SPECIFY THE 
             PROPER SURFACE NORMAL.

 ***WARNING: Abaqus WILL NOT ADJUST THE SURFACE NORMAL FOR THE SYMMETRY PLANE 
             AT NODE 70 INSTANCE PART-2-1 OF SURFACE ASSEMBLY_M_SURF-25. THE 
             MESH MAY BE VERY COARSE OR THE SURFACE MAY BE UNTRIMMED AT THE 
             SYMMETRY PLANE. PLEASE USE THE *NORMAL OPTION TO SPECIFY THE 
             PROPER SURFACE NORMAL.

 ***WARNING: Abaqus WILL NOT ADJUST THE SURFACE NORMAL FOR THE SYMMETRY PLANE 
             AT NODE 71 INSTANCE PART-2-1 OF SURFACE ASSEMBLY_M_SURF-25. THE 
             MESH MAY BE VERY COARSE OR THE SURFACE MAY BE UNTRIMMED AT THE 
             SYMMETRY PLANE. PLEASE USE THE *NORMAL OPTION TO SPECIFY THE 
             PROPER SURFACE NORMAL.

 ***WARNING: Abaqus WILL NOT ADJUST THE SURFACE NORMAL FOR THE SYMMETRY PLANE 
             AT NODE 72 INSTANCE PART-2-1 OF SURFACE ASSEMBLY_M_SURF-25. THE 
             MESH MAY BE VERY COARSE OR THE SURFACE MAY BE UNTRIMMED AT THE 
             SYMMETRY PLANE. PLEASE USE THE *NORMAL OPTION TO SPECIFY THE 
             PROPER SURFACE NORMAL.

 ***WARNING: Abaqus WILL NOT ADJUST THE SURFACE NORMAL FOR THE SYMMETRY PLANE 
             AT NODE 73 INSTANCE PART-2-1 OF SURFACE ASSEMBLY_M_SURF-25. THE 
             MESH MAY BE VERY COARSE OR THE SURFACE MAY BE UNTRIMMED AT THE 
             SYMMETRY PLANE. PLEASE USE THE *NORMAL OPTION TO SPECIFY THE 
             PROPER SURFACE NORMAL.

 ***WARNING: Abaqus WILL NOT ADJUST THE SURFACE NORMAL FOR THE SYMMETRY PLANE 
             AT NODE 151 INSTANCE PART-2-1 OF SURFACE ASSEMBLY_M_SURF-25. THE 
             MESH MAY BE VERY COARSE OR THE SURFACE MAY BE UNTRIMMED AT THE 
             SYMMETRY PLANE. PLEASE USE THE *NORMAL OPTION TO SPECIFY THE 
             PROPER SURFACE NORMAL.

 ***WARNING: Abaqus WILL NOT ADJUST THE SURFACE NORMAL FOR THE SYMMETRY PLANE 
             AT NODE 152 INSTANCE PART-2-1 OF SURFACE ASSEMBLY_M_SURF-25. THE 
             MESH MAY BE VERY COARSE OR THE SURFACE MAY BE UNTRIMMED AT THE 
             SYMMETRY PLANE. PLEASE USE THE *NORMAL OPTION TO SPECIFY THE 
             PROPER SURFACE NORMAL.

 ***WARNING: Abaqus WILL NOT ADJUST THE SURFACE NORMAL FOR THE SYMMETRY PLANE 
             AT NODE 153 INSTANCE PART-2-1 OF SURFACE ASSEMBLY_M_SURF-25. THE 
             MESH MAY BE VERY COARSE OR THE SURFACE MAY BE UNTRIMMED AT THE 
             SYMMETRY PLANE. PLEASE USE THE *NORMAL OPTION TO SPECIFY THE 
             PROPER SURFACE NORMAL.

 ***WARNING: Abaqus WILL NOT ADJUST THE SURFACE NORMAL FOR THE SYMMETRY PLANE 
             AT NODE 154 INSTANCE PART-2-1 OF SURFACE ASSEMBLY_M_SURF-25. THE 
             MESH MAY BE VERY COARSE OR THE SURFACE MAY BE UNTRIMMED AT THE 
             SYMMETRY PLANE. PLEASE USE THE *NORMAL OPTION TO SPECIFY THE 
             PROPER SURFACE NORMAL.

 ***WARNING: Abaqus WILL NOT ADJUST THE SURFACE NORMAL FOR THE SYMMETRY PLANE 
             AT NODE 155 INSTANCE PART-2-1 OF SURFACE ASSEMBLY_M_SURF-25. THE 
             MESH MAY BE VERY COARSE OR THE SURFACE MAY BE UNTRIMMED AT THE 
             SYMMETRY PLANE. PLEASE USE THE *NORMAL OPTION TO SPECIFY THE 
             PROPER SURFACE NORMAL.

 ***WARNING: Abaqus WILL NOT ADJUST THE SURFACE NORMAL FOR THE SYMMETRY PLANE 
             AT NODE 156 INSTANCE PART-2-1 OF SURFACE ASSEMBLY_M_SURF-25. THE 
             MESH MAY BE VERY COARSE OR THE SURFACE MAY BE UNTRIMMED AT THE 
             SYMMETRY PLANE. PLEASE USE THE *NORMAL OPTION TO SPECIFY THE 
             PROPER SURFACE NORMAL.

 ***WARNING: Abaqus WILL NOT ADJUST THE SURFACE NORMAL FOR THE SYMMETRY PLANE 
             AT NODE 157 INSTANCE PART-2-1 OF SURFACE ASSEMBLY_M_SURF-25. THE 
             MESH MAY BE VERY COARSE OR THE SURFACE MAY BE UNTRIMMED AT THE 
             SYMMETRY PLANE. PLEASE USE THE *NORMAL OPTION TO SPECIFY THE 
             PROPER SURFACE NORMAL.

 ***WARNING: Abaqus WILL NOT ADJUST THE SURFACE NORMAL FOR THE SYMMETRY PLANE 
             AT NODE 172 INSTANCE PART-2-1 OF SURFACE ASSEMBLY_M_SURF-25. THE 
             MESH MAY BE VERY COARSE OR THE SURFACE MAY BE UNTRIMMED AT THE 
             SYMMETRY PLANE. PLEASE USE THE *NORMAL OPTION TO SPECIFY THE 
             PROPER SURFACE NORMAL.

 ***WARNING: Abaqus WILL NOT ADJUST THE SURFACE NORMAL FOR THE SYMMETRY PLANE 
             AT NODE 173 INSTANCE PART-2-1 OF SURFACE ASSEMBLY_M_SURF-25. THE 
             MESH MAY BE VERY COARSE OR THE SURFACE MAY BE UNTRIMMED AT THE 
             SYMMETRY PLANE. PLEASE USE THE *NORMAL OPTION TO SPECIFY THE 
             PROPER SURFACE NORMAL.

 ***WARNING: Abaqus WILL NOT ADJUST THE SURFACE NORMAL FOR THE SYMMETRY PLANE 
             AT NODE 174 INSTANCE PART-2-1 OF SURFACE ASSEMBLY_M_SURF-25. THE 
             MESH MAY BE VERY COARSE OR THE SURFACE MAY BE UNTRIMMED AT THE 
             SYMMETRY PLANE. PLEASE USE THE *NORMAL OPTION TO SPECIFY THE 
             PROPER SURFACE NORMAL.

 ***WARNING: Abaqus WILL NOT ADJUST THE SURFACE NORMAL FOR THE SYMMETRY PLANE 
             AT NODE 175 INSTANCE PART-2-1 OF SURFACE ASSEMBLY_M_SURF-25. THE 
             MESH MAY BE VERY COARSE OR THE SURFACE MAY BE UNTRIMMED AT THE 
             SYMMETRY PLANE. PLEASE USE THE *NORMAL OPTION TO SPECIFY THE 
             PROPER SURFACE NORMAL.

 ***WARNING: Abaqus WILL NOT ADJUST THE SURFACE NORMAL FOR THE SYMMETRY PLANE 
             AT NODE 176 INSTANCE PART-2-1 OF SURFACE ASSEMBLY_M_SURF-25. THE 
             MESH MAY BE VERY COARSE OR THE SURFACE MAY BE UNTRIMMED AT THE 
             SYMMETRY PLANE. PLEASE USE THE *NORMAL OPTION TO SPECIFY THE 
             PROPER SURFACE NORMAL.

 ***WARNING: Abaqus WILL NOT ADJUST THE SURFACE NORMAL FOR THE SYMMETRY PLANE 
             AT NODE 177 INSTANCE PART-2-1 OF SURFACE ASSEMBLY_M_SURF-25. THE 
             MESH MAY BE VERY COARSE OR THE SURFACE MAY BE UNTRIMMED AT THE 
             SYMMETRY PLANE. PLEASE USE THE *NORMAL OPTION TO SPECIFY THE 
             PROPER SURFACE NORMAL.

 ***WARNING: Abaqus WILL NOT ADJUST THE SURFACE NORMAL FOR THE SYMMETRY PLANE 
             AT NODE 178 INSTANCE PART-2-1 OF SURFACE ASSEMBLY_M_SURF-25. THE 
             MESH MAY BE VERY COARSE OR THE SURFACE MAY BE UNTRIMMED AT THE 
             SYMMETRY PLANE. PLEASE USE THE *NORMAL OPTION TO SPECIFY THE 
             PROPER SURFACE NORMAL.

 ***WARNING: Abaqus WILL NOT ADJUST THE SURFACE NORMAL FOR THE SYMMETRY PLANE 
             AT NODE 250 INSTANCE PART-2-1 OF SURFACE ASSEMBLY_M_SURF-25. THE 
             MESH MAY BE VERY COARSE OR THE SURFACE MAY BE UNTRIMMED AT THE 
             SYMMETRY PLANE. PLEASE USE THE *NORMAL OPTION TO SPECIFY THE 
             PROPER SURFACE NORMAL.

 ***WARNING: Abaqus WILL NOT ADJUST THE SURFACE NORMAL FOR THE SYMMETRY PLANE 
             AT NODE 251 INSTANCE PART-2-1 OF SURFACE ASSEMBLY_M_SURF-25. THE 
             MESH MAY BE VERY COARSE OR THE SURFACE MAY BE UNTRIMMED AT THE 
             SYMMETRY PLANE. PLEASE USE THE *NORMAL OPTION TO SPECIFY THE 
             PROPER SURFACE NORMAL.

 ***WARNING: Abaqus WILL NOT ADJUST THE SURFACE NORMAL FOR THE SYMMETRY PLANE 
             AT NODE 252 INSTANCE PART-2-1 OF SURFACE ASSEMBLY_M_SURF-25. THE 
             MESH MAY BE VERY COARSE OR THE SURFACE MAY BE UNTRIMMED AT THE 
             SYMMETRY PLANE. PLEASE USE THE *NORMAL OPTION TO SPECIFY THE 
             PROPER SURFACE NORMAL.

 ***WARNING: Abaqus WILL NOT ADJUST THE SURFACE NORMAL FOR THE SYMMETRY PLANE 
             AT NODE 253 INSTANCE PART-2-1 OF SURFACE ASSEMBLY_M_SURF-25. THE 
             MESH MAY BE VERY COARSE OR THE SURFACE MAY BE UNTRIMMED AT THE 
             SYMMETRY PLANE. PLEASE USE THE *NORMAL OPTION TO SPECIFY THE 
             PROPER SURFACE NORMAL.

 ***WARNING: Abaqus WILL NOT ADJUST THE SURFACE NORMAL FOR THE SYMMETRY PLANE 
             AT NODE 261 INSTANCE PART-2-1 OF SURFACE ASSEMBLY_M_SURF-25. THE 
             MESH MAY BE VERY COARSE OR THE SURFACE MAY BE UNTRIMMED AT THE 
             SYMMETRY PLANE. PLEASE USE THE *NORMAL OPTION TO SPECIFY THE 
             PROPER SURFACE NORMAL.

 ***WARNING: Abaqus WILL NOT ADJUST THE SURFACE NORMAL FOR THE SYMMETRY PLANE 
             AT NODE 262 INSTANCE PART-2-1 OF SURFACE ASSEMBLY_M_SURF-25. THE 
             MESH MAY BE VERY COARSE OR THE SURFACE MAY BE UNTRIMMED AT THE 
             SYMMETRY PLANE. PLEASE USE THE *NORMAL OPTION TO SPECIFY THE 
             PROPER SURFACE NORMAL.

 ***WARNING: Abaqus WILL NOT ADJUST THE SURFACE NORMAL FOR THE SYMMETRY PLANE 
             AT NODE 263 INSTANCE PART-2-1 OF SURFACE ASSEMBLY_M_SURF-25. THE 
             MESH MAY BE VERY COARSE OR THE SURFACE MAY BE UNTRIMMED AT THE 
             SYMMETRY PLANE. PLEASE USE THE *NORMAL OPTION TO SPECIFY THE 
             PROPER SURFACE NORMAL.

 ***WARNING: Abaqus WILL NOT ADJUST THE SURFACE NORMAL FOR THE SYMMETRY PLANE 
             AT NODE 264 INSTANCE PART-2-1 OF SURFACE ASSEMBLY_M_SURF-25. THE 
             MESH MAY BE VERY COARSE OR THE SURFACE MAY BE UNTRIMMED AT THE 
             SYMMETRY PLANE. PLEASE USE THE *NORMAL OPTION TO SPECIFY THE 
             PROPER SURFACE NORMAL.

 ***WARNING: Abaqus WILL NOT ADJUST THE SURFACE NORMAL FOR THE SYMMETRY PLANE 
             AT NODE 265 INSTANCE PART-2-1 OF SURFACE ASSEMBLY_M_SURF-25. THE 
             MESH MAY BE VERY COARSE OR THE SURFACE MAY BE UNTRIMMED AT THE 
             SYMMETRY PLANE. PLEASE USE THE *NORMAL OPTION TO SPECIFY THE 
             PROPER SURFACE NORMAL.

 ***WARNING: Abaqus WILL NOT ADJUST THE SURFACE NORMAL FOR THE SYMMETRY PLANE 
             AT NODE 266 INSTANCE PART-2-1 OF SURFACE ASSEMBLY_M_SURF-25. THE 
             MESH MAY BE VERY COARSE OR THE SURFACE MAY BE UNTRIMMED AT THE 
             SYMMETRY PLANE. PLEASE USE THE *NORMAL OPTION TO SPECIFY THE 
             PROPER SURFACE NORMAL.

 ***WARNING: Abaqus WILL NOT ADJUST THE SURFACE NORMAL FOR THE SYMMETRY PLANE 
             AT NODE 267 INSTANCE PART-2-1 OF SURFACE ASSEMBLY_M_SURF-25. THE 
             MESH MAY BE VERY COARSE OR THE SURFACE MAY BE UNTRIMMED AT THE 
             SYMMETRY PLANE. PLEASE USE THE *NORMAL OPTION TO SPECIFY THE 
             PROPER SURFACE NORMAL.

 ***WARNING: Abaqus WILL NOT ADJUST THE SURFACE NORMAL FOR THE SYMMETRY PLANE 
             AT NODE 268 INSTANCE PART-2-1 OF SURFACE ASSEMBLY_M_SURF-25. THE 
             MESH MAY BE VERY COARSE OR THE SURFACE MAY BE UNTRIMMED AT THE 
             SYMMETRY PLANE. PLEASE USE THE *NORMAL OPTION TO SPECIFY THE 
             PROPER SURFACE NORMAL.

 ***WARNING: Abaqus WILL NOT ADJUST THE SURFACE NORMAL FOR THE SYMMETRY PLANE 
             AT NODE 269 INSTANCE PART-2-1 OF SURFACE ASSEMBLY_M_SURF-25. THE 
             MESH MAY BE VERY COARSE OR THE SURFACE MAY BE UNTRIMMED AT THE 
             SYMMETRY PLANE. PLEASE USE THE *NORMAL OPTION TO SPECIFY THE 
             PROPER SURFACE NORMAL.

 ***WARNING: Abaqus WILL NOT ADJUST THE SURFACE NORMAL FOR THE SYMMETRY PLANE 
             AT NODE 270 INSTANCE PART-2-1 OF SURFACE ASSEMBLY_M_SURF-25. THE 
             MESH MAY BE VERY COARSE OR THE SURFACE MAY BE UNTRIMMED AT THE 
             SYMMETRY PLANE. PLEASE USE THE *NORMAL OPTION TO SPECIFY THE 
             PROPER SURFACE NORMAL.

 ***WARNING: Abaqus WILL NOT ADJUST THE SURFACE NORMAL FOR THE SYMMETRY PLANE 
             AT NODE 271 INSTANCE PART-2-1 OF SURFACE ASSEMBLY_M_SURF-25. THE 
             MESH MAY BE VERY COARSE OR THE SURFACE MAY BE UNTRIMMED AT THE 
             SYMMETRY PLANE. PLEASE USE THE *NORMAL OPTION TO SPECIFY THE 
             PROPER SURFACE NORMAL.

 ***WARNING: Abaqus WILL NOT ADJUST THE SURFACE NORMAL FOR THE SYMMETRY PLANE 
             AT NODE 272 INSTANCE PART-2-1 OF SURFACE ASSEMBLY_M_SURF-25. THE 
             MESH MAY BE VERY COARSE OR THE SURFACE MAY BE UNTRIMMED AT THE 
             SYMMETRY PLANE. PLEASE USE THE *NORMAL OPTION TO SPECIFY THE 
             PROPER SURFACE NORMAL.

 ***WARNING: Abaqus WILL NOT ADJUST THE SURFACE NORMAL FOR THE SYMMETRY PLANE 
             AT NODE 273 INSTANCE PART-2-1 OF SURFACE ASSEMBLY_M_SURF-25. THE 
             MESH MAY BE VERY COARSE OR THE SURFACE MAY BE UNTRIMMED AT THE 
             SYMMETRY PLANE. PLEASE USE THE *NORMAL OPTION TO SPECIFY THE 
             PROPER SURFACE NORMAL.

 ***WARNING: Abaqus WILL NOT ADJUST THE SURFACE NORMAL FOR THE SYMMETRY PLANE 
             AT NODE 274 INSTANCE PART-2-1 OF SURFACE ASSEMBLY_M_SURF-25. THE 
             MESH MAY BE VERY COARSE OR THE SURFACE MAY BE UNTRIMMED AT THE 
             SYMMETRY PLANE. PLEASE USE THE *NORMAL OPTION TO SPECIFY THE 
             PROPER SURFACE NORMAL.

 ***WARNING: Abaqus WILL NOT ADJUST THE SURFACE NORMAL FOR THE SYMMETRY PLANE 
             AT NODE 318 INSTANCE PART-2-1 OF SURFACE ASSEMBLY_M_SURF-25. THE 
             MESH MAY BE VERY COARSE OR THE SURFACE MAY BE UNTRIMMED AT THE 
             SYMMETRY PLANE. PLEASE USE THE *NORMAL OPTION TO SPECIFY THE 
             PROPER SURFACE NORMAL.

 ***WARNING: Abaqus WILL NOT ADJUST THE SURFACE NORMAL FOR THE SYMMETRY PLANE 
             AT NODE 319 INSTANCE PART-2-1 OF SURFACE ASSEMBLY_M_SURF-25. THE 
             MESH MAY BE VERY COARSE OR THE SURFACE MAY BE UNTRIMMED AT THE 
             SYMMETRY PLANE. PLEASE USE THE *NORMAL OPTION TO SPECIFY THE 
             PROPER SURFACE NORMAL.

 ***WARNING: Abaqus WILL NOT ADJUST THE SURFACE NORMAL FOR THE SYMMETRY PLANE 
             AT NODE 320 INSTANCE PART-2-1 OF SURFACE ASSEMBLY_M_SURF-25. THE 
             MESH MAY BE VERY COARSE OR THE SURFACE MAY BE UNTRIMMED AT THE 
             SYMMETRY PLANE. PLEASE USE THE *NORMAL OPTION TO SPECIFY THE 
             PROPER SURFACE NORMAL.

 ***WARNING: Abaqus WILL NOT ADJUST THE SURFACE NORMAL FOR THE SYMMETRY PLANE 
             AT NODE 321 INSTANCE PART-2-1 OF SURFACE ASSEMBLY_M_SURF-25. THE 
             MESH MAY BE VERY COARSE OR THE SURFACE MAY BE UNTRIMMED AT THE 
             SYMMETRY PLANE. PLEASE USE THE *NORMAL OPTION TO SPECIFY THE 
             PROPER SURFACE NORMAL.

 ***WARNING: Abaqus WILL NOT ADJUST THE SURFACE NORMAL FOR THE SYMMETRY PLANE 
             AT NODE 358 INSTANCE PART-2-1 OF SURFACE ASSEMBLY_M_SURF-25. THE 
             MESH MAY BE VERY COARSE OR THE SURFACE MAY BE UNTRIMMED AT THE 
             SYMMETRY PLANE. PLEASE USE THE *NORMAL OPTION TO SPECIFY THE 
             PROPER SURFACE NORMAL.

 ***WARNING: Abaqus WILL NOT ADJUST THE SURFACE NORMAL FOR THE SYMMETRY PLANE 
             AT NODE 359 INSTANCE PART-2-1 OF SURFACE ASSEMBLY_M_SURF-25. THE 
             MESH MAY BE VERY COARSE OR THE SURFACE MAY BE UNTRIMMED AT THE 
             SYMMETRY PLANE. PLEASE USE THE *NORMAL OPTION TO SPECIFY THE 
             PROPER SURFACE NORMAL.

 ***WARNING: Abaqus WILL NOT ADJUST THE SURFACE NORMAL FOR THE SYMMETRY PLANE 
             AT NODE 360 INSTANCE PART-2-1 OF SURFACE ASSEMBLY_M_SURF-25. THE 
             MESH MAY BE VERY COARSE OR THE SURFACE MAY BE UNTRIMMED AT THE 
             SYMMETRY PLANE. PLEASE USE THE *NORMAL OPTION TO SPECIFY THE 
             PROPER SURFACE NORMAL.

 ***WARNING: Abaqus WILL NOT ADJUST THE SURFACE NORMAL FOR THE SYMMETRY PLANE 
             AT NODE 361 INSTANCE PART-2-1 OF SURFACE ASSEMBLY_M_SURF-25. THE 
             MESH MAY BE VERY COARSE OR THE SURFACE MAY BE UNTRIMMED AT THE 
             SYMMETRY PLANE. PLEASE USE THE *NORMAL OPTION TO SPECIFY THE 
             PROPER SURFACE NORMAL.

 ***WARNING: Abaqus WILL NOT ADJUST THE SURFACE NORMAL FOR THE SYMMETRY PLANE 
             AT NODE 362 INSTANCE PART-2-1 OF SURFACE ASSEMBLY_M_SURF-25. THE 
             MESH MAY BE VERY COARSE OR THE SURFACE MAY BE UNTRIMMED AT THE 
             SYMMETRY PLANE. PLEASE USE THE *NORMAL OPTION TO SPECIFY THE 
             PROPER SURFACE NORMAL.

 ***WARNING: Abaqus WILL NOT ADJUST THE SURFACE NORMAL FOR THE SYMMETRY PLANE 
             AT NODE 363 INSTANCE PART-2-1 OF SURFACE ASSEMBLY_M_SURF-25. THE 
             MESH MAY BE VERY COARSE OR THE SURFACE MAY BE UNTRIMMED AT THE 
             SYMMETRY PLANE. PLEASE USE THE *NORMAL OPTION TO SPECIFY THE 
             PROPER SURFACE NORMAL.

 ***WARNING: Abaqus WILL NOT ADJUST THE SURFACE NORMAL FOR THE SYMMETRY PLANE 
             AT NODE 364 INSTANCE PART-2-1 OF SURFACE ASSEMBLY_M_SURF-25. THE 
             MESH MAY BE VERY COARSE OR THE SURFACE MAY BE UNTRIMMED AT THE 
             SYMMETRY PLANE. PLEASE USE THE *NORMAL OPTION TO SPECIFY THE 
             PROPER SURFACE NORMAL.

 ***WARNING: Abaqus WILL NOT ADJUST THE SURFACE NORMAL FOR THE SYMMETRY PLANE 
             AT NODE 395 INSTANCE PART-2-1 OF SURFACE ASSEMBLY_M_SURF-25. THE 
             MESH MAY BE VERY COARSE OR THE SURFACE MAY BE UNTRIMMED AT THE 
             SYMMETRY PLANE. PLEASE USE THE *NORMAL OPTION TO SPECIFY THE 
             PROPER SURFACE NORMAL.

 ***WARNING: Abaqus WILL NOT ADJUST THE SURFACE NORMAL FOR THE SYMMETRY PLANE 
             AT NODE 396 INSTANCE PART-2-1 OF SURFACE ASSEMBLY_M_SURF-25. THE 
             MESH MAY BE VERY COARSE OR THE SURFACE MAY BE UNTRIMMED AT THE 
             SYMMETRY PLANE. PLEASE USE THE *NORMAL OPTION TO SPECIFY THE 
             PROPER SURFACE NORMAL.

 ***WARNING: Abaqus WILL NOT ADJUST THE SURFACE NORMAL FOR THE SYMMETRY PLANE 
             AT NODE 397 INSTANCE PART-2-1 OF SURFACE ASSEMBLY_M_SURF-25. THE 
             MESH MAY BE VERY COARSE OR THE SURFACE MAY BE UNTRIMMED AT THE 
             SYMMETRY PLANE. PLEASE USE THE *NORMAL OPTION TO SPECIFY THE 
             PROPER SURFACE NORMAL.

 ***WARNING: Abaqus WILL NOT ADJUST THE SURFACE NORMAL FOR THE SYMMETRY PLANE 
             AT NODE 398 INSTANCE PART-2-1 OF SURFACE ASSEMBLY_M_SURF-25. THE 
             MESH MAY BE VERY COARSE OR THE SURFACE MAY BE UNTRIMMED AT THE 
             SYMMETRY PLANE. PLEASE USE THE *NORMAL OPTION TO SPECIFY THE 
             PROPER SURFACE NORMAL.

 ***WARNING: Abaqus WILL NOT ADJUST THE SURFACE NORMAL FOR THE SYMMETRY PLANE 
             AT NODE 399 INSTANCE PART-2-1 OF SURFACE ASSEMBLY_M_SURF-25. THE 
             MESH MAY BE VERY COARSE OR THE SURFACE MAY BE UNTRIMMED AT THE 
             SYMMETRY PLANE. PLEASE USE THE *NORMAL OPTION TO SPECIFY THE 
             PROPER SURFACE NORMAL.

 ***WARNING: Abaqus WILL NOT ADJUST THE SURFACE NORMAL FOR THE SYMMETRY PLANE 
             AT NODE 400 INSTANCE PART-2-1 OF SURFACE ASSEMBLY_M_SURF-25. THE 
             MESH MAY BE VERY COARSE OR THE SURFACE MAY BE UNTRIMMED AT THE 
             SYMMETRY PLANE. PLEASE USE THE *NORMAL OPTION TO SPECIFY THE 
             PROPER SURFACE NORMAL.

 ***WARNING: Abaqus WILL NOT ADJUST THE SURFACE NORMAL FOR THE SYMMETRY PLANE 
             AT NODE 401 INSTANCE PART-2-1 OF SURFACE ASSEMBLY_M_SURF-25. THE 
             MESH MAY BE VERY COARSE OR THE SURFACE MAY BE UNTRIMMED AT THE 
             SYMMETRY PLANE. PLEASE USE THE *NORMAL OPTION TO SPECIFY THE 
             PROPER SURFACE NORMAL.

 ***WARNING: Abaqus WILL NOT ADJUST THE SURFACE NORMAL FOR THE SYMMETRY PLANE 
             AT NODE 413 INSTANCE PART-2-1 OF SURFACE ASSEMBLY_M_SURF-25. THE 
             MESH MAY BE VERY COARSE OR THE SURFACE MAY BE UNTRIMMED AT THE 
             SYMMETRY PLANE. PLEASE USE THE *NORMAL OPTION TO SPECIFY THE 
             PROPER SURFACE NORMAL.

 ***WARNING: Abaqus WILL NOT ADJUST THE SURFACE NORMAL FOR THE SYMMETRY PLANE 
             AT NODE 414 INSTANCE PART-2-1 OF SURFACE ASSEMBLY_M_SURF-25. THE 
             MESH MAY BE VERY COARSE OR THE SURFACE MAY BE UNTRIMMED AT THE 
             SYMMETRY PLANE. PLEASE USE THE *NORMAL OPTION TO SPECIFY THE 
             PROPER SURFACE NORMAL.

 ***WARNING: Abaqus WILL NOT ADJUST THE SURFACE NORMAL FOR THE SYMMETRY PLANE 
             AT NODE 415 INSTANCE PART-2-1 OF SURFACE ASSEMBLY_M_SURF-25. THE 
             MESH MAY BE VERY COARSE OR THE SURFACE MAY BE UNTRIMMED AT THE 
             SYMMETRY PLANE. PLEASE USE THE *NORMAL OPTION TO SPECIFY THE 
             PROPER SURFACE NORMAL.

 ***WARNING: Abaqus WILL NOT ADJUST THE SURFACE NORMAL FOR THE SYMMETRY PLANE 
             AT NODE 416 INSTANCE PART-2-1 OF SURFACE ASSEMBLY_M_SURF-25. THE 
             MESH MAY BE VERY COARSE OR THE SURFACE MAY BE UNTRIMMED AT THE 
             SYMMETRY PLANE. PLEASE USE THE *NORMAL OPTION TO SPECIFY THE 
             PROPER SURFACE NORMAL.

 ***WARNING: Abaqus WILL NOT ADJUST THE SURFACE NORMAL FOR THE SYMMETRY PLANE 
             AT NODE 444 INSTANCE PART-2-1 OF SURFACE ASSEMBLY_M_SURF-25. THE 
             MESH MAY BE VERY COARSE OR THE SURFACE MAY BE UNTRIMMED AT THE 
             SYMMETRY PLANE. PLEASE USE THE *NORMAL OPTION TO SPECIFY THE 
             PROPER SURFACE NORMAL.

 ***WARNING: Abaqus WILL NOT ADJUST THE SURFACE NORMAL FOR THE SYMMETRY PLANE 
             AT NODE 445 INSTANCE PART-2-1 OF SURFACE ASSEMBLY_M_SURF-25. THE 
             MESH MAY BE VERY COARSE OR THE SURFACE MAY BE UNTRIMMED AT THE 
             SYMMETRY PLANE. PLEASE USE THE *NORMAL OPTION TO SPECIFY THE 
             PROPER SURFACE NORMAL.

 ***WARNING: Abaqus WILL NOT ADJUST THE SURFACE NORMAL FOR THE SYMMETRY PLANE 
             AT NODE 446 INSTANCE PART-2-1 OF SURFACE ASSEMBLY_M_SURF-25. THE 
             MESH MAY BE VERY COARSE OR THE SURFACE MAY BE UNTRIMMED AT THE 
             SYMMETRY PLANE. PLEASE USE THE *NORMAL OPTION TO SPECIFY THE 
             PROPER SURFACE NORMAL.

 ***WARNING: Abaqus WILL NOT ADJUST THE SURFACE NORMAL FOR THE SYMMETRY PLANE 
             AT NODE 447 INSTANCE PART-2-1 OF SURFACE ASSEMBLY_M_SURF-25. THE 
             MESH MAY BE VERY COARSE OR THE SURFACE MAY BE UNTRIMMED AT THE 
             SYMMETRY PLANE. PLEASE USE THE *NORMAL OPTION TO SPECIFY THE 
             PROPER SURFACE NORMAL.

 ***WARNING: Abaqus WILL NOT ADJUST THE SURFACE NORMAL FOR THE SYMMETRY PLANE 
             AT NODE 448 INSTANCE PART-2-1 OF SURFACE ASSEMBLY_M_SURF-25. THE 
             MESH MAY BE VERY COARSE OR THE SURFACE MAY BE UNTRIMMED AT THE 
             SYMMETRY PLANE. PLEASE USE THE *NORMAL OPTION TO SPECIFY THE 
             PROPER SURFACE NORMAL.

 ***WARNING: Abaqus WILL NOT ADJUST THE SURFACE NORMAL FOR THE SYMMETRY PLANE 
             AT NODE 449 INSTANCE PART-2-1 OF SURFACE ASSEMBLY_M_SURF-25. THE 
             MESH MAY BE VERY COARSE OR THE SURFACE MAY BE UNTRIMMED AT THE 
             SYMMETRY PLANE. PLEASE USE THE *NORMAL OPTION TO SPECIFY THE 
             PROPER SURFACE NORMAL.

 ***WARNING: Abaqus WILL NOT ADJUST THE SURFACE NORMAL FOR THE SYMMETRY PLANE 
             AT NODE 450 INSTANCE PART-2-1 OF SURFACE ASSEMBLY_M_SURF-25. THE 
             MESH MAY BE VERY COARSE OR THE SURFACE MAY BE UNTRIMMED AT THE 
             SYMMETRY PLANE. PLEASE USE THE *NORMAL OPTION TO SPECIFY THE 
             PROPER SURFACE NORMAL.

 ***WARNING: Abaqus WILL NOT ADJUST THE SURFACE NORMAL FOR THE SYMMETRY PLANE 
             AT NODE 474 INSTANCE PART-2-1 OF SURFACE ASSEMBLY_M_SURF-25. THE 
             MESH MAY BE VERY COARSE OR THE SURFACE MAY BE UNTRIMMED AT THE 
             SYMMETRY PLANE. PLEASE USE THE *NORMAL OPTION TO SPECIFY THE 
             PROPER SURFACE NORMAL.

 ***WARNING: Abaqus WILL NOT ADJUST THE SURFACE NORMAL FOR THE SYMMETRY PLANE 
             AT NODE 475 INSTANCE PART-2-1 OF SURFACE ASSEMBLY_M_SURF-25. THE 
             MESH MAY BE VERY COARSE OR THE SURFACE MAY BE UNTRIMMED AT THE 
             SYMMETRY PLANE. PLEASE USE THE *NORMAL OPTION TO SPECIFY THE 
             PROPER SURFACE NORMAL.

 ***WARNING: Abaqus WILL NOT ADJUST THE SURFACE NORMAL FOR THE SYMMETRY PLANE 
             AT NODE 476 INSTANCE PART-2-1 OF SURFACE ASSEMBLY_M_SURF-25. THE 
             MESH MAY BE VERY COARSE OR THE SURFACE MAY BE UNTRIMMED AT THE 
             SYMMETRY PLANE. PLEASE USE THE *NORMAL OPTION TO SPECIFY THE 
             PROPER SURFACE NORMAL.

 ***WARNING: Abaqus WILL NOT ADJUST THE SURFACE NORMAL FOR THE SYMMETRY PLANE 
             AT NODE 477 INSTANCE PART-2-1 OF SURFACE ASSEMBLY_M_SURF-25. THE 
             MESH MAY BE VERY COARSE OR THE SURFACE MAY BE UNTRIMMED AT THE 
             SYMMETRY PLANE. PLEASE USE THE *NORMAL OPTION TO SPECIFY THE 
             PROPER SURFACE NORMAL.

 ***WARNING: Abaqus WILL NOT ADJUST THE SURFACE NORMAL FOR THE SYMMETRY PLANE 
             AT NODE 478 INSTANCE PART-2-1 OF SURFACE ASSEMBLY_M_SURF-25. THE 
             MESH MAY BE VERY COARSE OR THE SURFACE MAY BE UNTRIMMED AT THE 
             SYMMETRY PLANE. PLEASE USE THE *NORMAL OPTION TO SPECIFY THE 
             PROPER SURFACE NORMAL.

 ***WARNING: Abaqus WILL NOT ADJUST THE SURFACE NORMAL FOR THE SYMMETRY PLANE 
             AT NODE 479 INSTANCE PART-2-1 OF SURFACE ASSEMBLY_M_SURF-25. THE 
             MESH MAY BE VERY COARSE OR THE SURFACE MAY BE UNTRIMMED AT THE 
             SYMMETRY PLANE. PLEASE USE THE *NORMAL OPTION TO SPECIFY THE 
             PROPER SURFACE NORMAL.

 ***WARNING: Abaqus WILL NOT ADJUST THE SURFACE NORMAL FOR THE SYMMETRY PLANE 
             AT NODE 480 INSTANCE PART-2-1 OF SURFACE ASSEMBLY_M_SURF-25. THE 
             MESH MAY BE VERY COARSE OR THE SURFACE MAY BE UNTRIMMED AT THE 
             SYMMETRY PLANE. PLEASE USE THE *NORMAL OPTION TO SPECIFY THE 
             PROPER SURFACE NORMAL.

 ***WARNING: 84 nodes may have incorrect normal definitions. The nodes have 
             been identified in node set WarnNodeIncorrectNormal.

 ***WARNING: Abaqus WILL NOT ADJUST THE SURFACE NORMAL FOR THE SYMMETRY PLANE 
             AT NODE 1 INSTANCE PART-1-1 OF SURFACE ASSEMBLY_S_SURF-25. THE 
             MESH MAY BE VERY COARSE OR THE SURFACE MAY BE UNTRIMMED AT THE 
             SYMMETRY PLANE. PLEASE USE THE *NORMAL OPTION TO SPECIFY THE 
             PROPER SURFACE NORMAL.

 ***WARNING: Abaqus WILL NOT ADJUST THE SURFACE NORMAL FOR THE SYMMETRY PLANE 
             AT NODE 7 INSTANCE PART-1-1 OF SURFACE ASSEMBLY_S_SURF-25. THE 
             MESH MAY BE VERY COARSE OR THE SURFACE MAY BE UNTRIMMED AT THE 
             SYMMETRY PLANE. PLEASE USE THE *NORMAL OPTION TO SPECIFY THE 
             PROPER SURFACE NORMAL.

 ***WARNING: Abaqus WILL NOT ADJUST THE SURFACE NORMAL FOR THE SYMMETRY PLANE 
             AT NODE 8 INSTANCE PART-1-1 OF SURFACE ASSEMBLY_S_SURF-25. THE 
             MESH MAY BE VERY COARSE OR THE SURFACE MAY BE UNTRIMMED AT THE 
             SYMMETRY PLANE. PLEASE USE THE *NORMAL OPTION TO SPECIFY THE 
             PROPER SURFACE NORMAL.

 ***WARNING: Abaqus WILL NOT ADJUST THE SURFACE NORMAL FOR THE SYMMETRY PLANE 
             AT NODE 9 INSTANCE PART-1-1 OF SURFACE ASSEMBLY_S_SURF-25. THE 
             MESH MAY BE VERY COARSE OR THE SURFACE MAY BE UNTRIMMED AT THE 
             SYMMETRY PLANE. PLEASE USE THE *NORMAL OPTION TO SPECIFY THE 
             PROPER SURFACE NORMAL.

 ***WARNING: Abaqus WILL NOT ADJUST THE SURFACE NORMAL FOR THE SYMMETRY PLANE 
             AT NODE 14 INSTANCE PART-1-1 OF SURFACE ASSEMBLY_S_SURF-25. THE 
             MESH MAY BE VERY COARSE OR THE SURFACE MAY BE UNTRIMMED AT THE 
             SYMMETRY PLANE. PLEASE USE THE *NORMAL OPTION TO SPECIFY THE 
             PROPER SURFACE NORMAL.

 ***WARNING: Abaqus WILL NOT ADJUST THE SURFACE NORMAL FOR THE SYMMETRY PLANE 
             AT NODE 15 INSTANCE PART-1-1 OF SURFACE ASSEMBLY_S_SURF-25. THE 
             MESH MAY BE VERY COARSE OR THE SURFACE MAY BE UNTRIMMED AT THE 
             SYMMETRY PLANE. PLEASE USE THE *NORMAL OPTION TO SPECIFY THE 
             PROPER SURFACE NORMAL.

 ***WARNING: Abaqus WILL NOT ADJUST THE SURFACE NORMAL FOR THE SYMMETRY PLANE 
             AT NODE 22 INSTANCE PART-1-1 OF SURFACE ASSEMBLY_S_SURF-25. THE 
             MESH MAY BE VERY COARSE OR THE SURFACE MAY BE UNTRIMMED AT THE 
             SYMMETRY PLANE. PLEASE USE THE *NORMAL OPTION TO SPECIFY THE 
             PROPER SURFACE NORMAL.

 ***WARNING: Abaqus WILL NOT ADJUST THE SURFACE NORMAL FOR THE SYMMETRY PLANE 
             AT NODE 24 INSTANCE PART-1-1 OF SURFACE ASSEMBLY_S_SURF-25. THE 
             MESH MAY BE VERY COARSE OR THE SURFACE MAY BE UNTRIMMED AT THE 
             SYMMETRY PLANE. PLEASE USE THE *NORMAL OPTION TO SPECIFY THE 
             PROPER SURFACE NORMAL.

 ***WARNING: Abaqus WILL NOT ADJUST THE SURFACE NORMAL FOR THE SYMMETRY PLANE 
             AT NODE 25 INSTANCE PART-1-1 OF SURFACE ASSEMBLY_S_SURF-25. THE 
             MESH MAY BE VERY COARSE OR THE SURFACE MAY BE UNTRIMMED AT THE 
             SYMMETRY PLANE. PLEASE USE THE *NORMAL OPTION TO SPECIFY THE 
             PROPER SURFACE NORMAL.

 ***WARNING: Abaqus WILL NOT ADJUST THE SURFACE NORMAL FOR THE SYMMETRY PLANE 
             AT NODE 26 INSTANCE PART-1-1 OF SURFACE ASSEMBLY_S_SURF-25. THE 
             MESH MAY BE VERY COARSE OR THE SURFACE MAY BE UNTRIMMED AT THE 
             SYMMETRY PLANE. PLEASE USE THE *NORMAL OPTION TO SPECIFY THE 
             PROPER SURFACE NORMAL.

 ***WARNING: Abaqus WILL NOT ADJUST THE SURFACE NORMAL FOR THE SYMMETRY PLANE 
             AT NODE 30 INSTANCE PART-1-1 OF SURFACE ASSEMBLY_S_SURF-25. THE 
             MESH MAY BE VERY COARSE OR THE SURFACE MAY BE UNTRIMMED AT THE 
             SYMMETRY PLANE. PLEASE USE THE *NORMAL OPTION TO SPECIFY THE 
             PROPER SURFACE NORMAL.

 ***WARNING: Abaqus WILL NOT ADJUST THE SURFACE NORMAL FOR THE SYMMETRY PLANE 
             AT NODE 31 INSTANCE PART-1-1 OF SURFACE ASSEMBLY_S_SURF-25. THE 
             MESH MAY BE VERY COARSE OR THE SURFACE MAY BE UNTRIMMED AT THE 
             SYMMETRY PLANE. PLEASE USE THE *NORMAL OPTION TO SPECIFY THE 
             PROPER SURFACE NORMAL.

 ***WARNING: Abaqus WILL NOT ADJUST THE SURFACE NORMAL FOR THE SYMMETRY PLANE 
             AT NODE 68 INSTANCE PART-1-1 OF SURFACE ASSEMBLY_S_SURF-25. THE 
             MESH MAY BE VERY COARSE OR THE SURFACE MAY BE UNTRIMMED AT THE 
             SYMMETRY PLANE. PLEASE USE THE *NORMAL OPTION TO SPECIFY THE 
             PROPER SURFACE NORMAL.

 ***WARNING: Abaqus WILL NOT ADJUST THE SURFACE NORMAL FOR THE SYMMETRY PLANE 
             AT NODE 69 INSTANCE PART-1-1 OF SURFACE ASSEMBLY_S_SURF-25. THE 
             MESH MAY BE VERY COARSE OR THE SURFACE MAY BE UNTRIMMED AT THE 
             SYMMETRY PLANE. PLEASE USE THE *NORMAL OPTION TO SPECIFY THE 
             PROPER SURFACE NORMAL.

 ***WARNING: Abaqus WILL NOT ADJUST THE SURFACE NORMAL FOR THE SYMMETRY PLANE 
             AT NODE 70 INSTANCE PART-1-1 OF SURFACE ASSEMBLY_S_SURF-25. THE 
             MESH MAY BE VERY COARSE OR THE SURFACE MAY BE UNTRIMMED AT THE 
             SYMMETRY PLANE. PLEASE USE THE *NORMAL OPTION TO SPECIFY THE 
             PROPER SURFACE NORMAL.

 ***WARNING: Abaqus WILL NOT ADJUST THE SURFACE NORMAL FOR THE SYMMETRY PLANE 
             AT NODE 71 INSTANCE PART-1-1 OF SURFACE ASSEMBLY_S_SURF-25. THE 
             MESH MAY BE VERY COARSE OR THE SURFACE MAY BE UNTRIMMED AT THE 
             SYMMETRY PLANE. PLEASE USE THE *NORMAL OPTION TO SPECIFY THE 
             PROPER SURFACE NORMAL.

 ***WARNING: Abaqus WILL NOT ADJUST THE SURFACE NORMAL FOR THE SYMMETRY PLANE 
             AT NODE 72 INSTANCE PART-1-1 OF SURFACE ASSEMBLY_S_SURF-25. THE 
             MESH MAY BE VERY COARSE OR THE SURFACE MAY BE UNTRIMMED AT THE 
             SYMMETRY PLANE. PLEASE USE THE *NORMAL OPTION TO SPECIFY THE 
             PROPER SURFACE NORMAL.

 ***WARNING: Abaqus WILL NOT ADJUST THE SURFACE NORMAL FOR THE SYMMETRY PLANE 
             AT NODE 73 INSTANCE PART-1-1 OF SURFACE ASSEMBLY_S_SURF-25. THE 
             MESH MAY BE VERY COARSE OR THE SURFACE MAY BE UNTRIMMED AT THE 
             SYMMETRY PLANE. PLEASE USE THE *NORMAL OPTION TO SPECIFY THE 
             PROPER SURFACE NORMAL.

 ***WARNING: Abaqus WILL NOT ADJUST THE SURFACE NORMAL FOR THE SYMMETRY PLANE 
             AT NODE 74 INSTANCE PART-1-1 OF SURFACE ASSEMBLY_S_SURF-25. THE 
             MESH MAY BE VERY COARSE OR THE SURFACE MAY BE UNTRIMMED AT THE 
             SYMMETRY PLANE. PLEASE USE THE *NORMAL OPTION TO SPECIFY THE 
             PROPER SURFACE NORMAL.

 ***WARNING: Abaqus WILL NOT ADJUST THE SURFACE NORMAL FOR THE SYMMETRY PLANE 
             AT NODE 75 INSTANCE PART-1-1 OF SURFACE ASSEMBLY_S_SURF-25. THE 
             MESH MAY BE VERY COARSE OR THE SURFACE MAY BE UNTRIMMED AT THE 
             SYMMETRY PLANE. PLEASE USE THE *NORMAL OPTION TO SPECIFY THE 
             PROPER SURFACE NORMAL.

 ***WARNING: Abaqus WILL NOT ADJUST THE SURFACE NORMAL FOR THE SYMMETRY PLANE 
             AT NODE 76 INSTANCE PART-1-1 OF SURFACE ASSEMBLY_S_SURF-25. THE 
             MESH MAY BE VERY COARSE OR THE SURFACE MAY BE UNTRIMMED AT THE 
             SYMMETRY PLANE. PLEASE USE THE *NORMAL OPTION TO SPECIFY THE 
             PROPER SURFACE NORMAL.

 ***WARNING: Abaqus WILL NOT ADJUST THE SURFACE NORMAL FOR THE SYMMETRY PLANE 
             AT NODE 86 INSTANCE PART-1-1 OF SURFACE ASSEMBLY_S_SURF-25. THE 
             MESH MAY BE VERY COARSE OR THE SURFACE MAY BE UNTRIMMED AT THE 
             SYMMETRY PLANE. PLEASE USE THE *NORMAL OPTION TO SPECIFY THE 
             PROPER SURFACE NORMAL.

 ***WARNING: Abaqus WILL NOT ADJUST THE SURFACE NORMAL FOR THE SYMMETRY PLANE 
             AT NODE 87 INSTANCE PART-1-1 OF SURFACE ASSEMBLY_S_SURF-25. THE 
             MESH MAY BE VERY COARSE OR THE SURFACE MAY BE UNTRIMMED AT THE 
             SYMMETRY PLANE. PLEASE USE THE *NORMAL OPTION TO SPECIFY THE 
             PROPER SURFACE NORMAL.

 ***WARNING: Abaqus WILL NOT ADJUST THE SURFACE NORMAL FOR THE SYMMETRY PLANE 
             AT NODE 88 INSTANCE PART-1-1 OF SURFACE ASSEMBLY_S_SURF-25. THE 
             MESH MAY BE VERY COARSE OR THE SURFACE MAY BE UNTRIMMED AT THE 
             SYMMETRY PLANE. PLEASE USE THE *NORMAL OPTION TO SPECIFY THE 
             PROPER SURFACE NORMAL.

 ***WARNING: Abaqus WILL NOT ADJUST THE SURFACE NORMAL FOR THE SYMMETRY PLANE 
             AT NODE 89 INSTANCE PART-1-1 OF SURFACE ASSEMBLY_S_SURF-25. THE 
             MESH MAY BE VERY COARSE OR THE SURFACE MAY BE UNTRIMMED AT THE 
             SYMMETRY PLANE. PLEASE USE THE *NORMAL OPTION TO SPECIFY THE 
             PROPER SURFACE NORMAL.

 ***WARNING: Abaqus WILL NOT ADJUST THE SURFACE NORMAL FOR THE SYMMETRY PLANE 
             AT NODE 90 INSTANCE PART-1-1 OF SURFACE ASSEMBLY_S_SURF-25. THE 
             MESH MAY BE VERY COARSE OR THE SURFACE MAY BE UNTRIMMED AT THE 
             SYMMETRY PLANE. PLEASE USE THE *NORMAL OPTION TO SPECIFY THE 
             PROPER SURFACE NORMAL.

 ***WARNING: Abaqus WILL NOT ADJUST THE SURFACE NORMAL FOR THE SYMMETRY PLANE 
             AT NODE 91 INSTANCE PART-1-1 OF SURFACE ASSEMBLY_S_SURF-25. THE 
             MESH MAY BE VERY COARSE OR THE SURFACE MAY BE UNTRIMMED AT THE 
             SYMMETRY PLANE. PLEASE USE THE *NORMAL OPTION TO SPECIFY THE 
             PROPER SURFACE NORMAL.

 ***WARNING: Abaqus WILL NOT ADJUST THE SURFACE NORMAL FOR THE SYMMETRY PLANE 
             AT NODE 92 INSTANCE PART-1-1 OF SURFACE ASSEMBLY_S_SURF-25. THE 
             MESH MAY BE VERY COARSE OR THE SURFACE MAY BE UNTRIMMED AT THE 
             SYMMETRY PLANE. PLEASE USE THE *NORMAL OPTION TO SPECIFY THE 
             PROPER SURFACE NORMAL.

 ***WARNING: Abaqus WILL NOT ADJUST THE SURFACE NORMAL FOR THE SYMMETRY PLANE 
             AT NODE 93 INSTANCE PART-1-1 OF SURFACE ASSEMBLY_S_SURF-25. THE 
             MESH MAY BE VERY COARSE OR THE SURFACE MAY BE UNTRIMMED AT THE 
             SYMMETRY PLANE. PLEASE USE THE *NORMAL OPTION TO SPECIFY THE 
             PROPER SURFACE NORMAL.

 ***WARNING: Abaqus WILL NOT ADJUST THE SURFACE NORMAL FOR THE SYMMETRY PLANE 
             AT NODE 94 INSTANCE PART-1-1 OF SURFACE ASSEMBLY_S_SURF-25. THE 
             MESH MAY BE VERY COARSE OR THE SURFACE MAY BE UNTRIMMED AT THE 
             SYMMETRY PLANE. PLEASE USE THE *NORMAL OPTION TO SPECIFY THE 
             PROPER SURFACE NORMAL.

 ***WARNING: Abaqus WILL NOT ADJUST THE SURFACE NORMAL FOR THE SYMMETRY PLANE 
             AT NODE 141 INSTANCE PART-1-1 OF SURFACE ASSEMBLY_S_SURF-25. THE 
             MESH MAY BE VERY COARSE OR THE SURFACE MAY BE UNTRIMMED AT THE 
             SYMMETRY PLANE. PLEASE USE THE *NORMAL OPTION TO SPECIFY THE 
             PROPER SURFACE NORMAL.

 ***WARNING: Abaqus WILL NOT ADJUST THE SURFACE NORMAL FOR THE SYMMETRY PLANE 
             AT NODE 142 INSTANCE PART-1-1 OF SURFACE ASSEMBLY_S_SURF-25. THE 
             MESH MAY BE VERY COARSE OR THE SURFACE MAY BE UNTRIMMED AT THE 
             SYMMETRY PLANE. PLEASE USE THE *NORMAL OPTION TO SPECIFY THE 
             PROPER SURFACE NORMAL.

 ***WARNING: Abaqus WILL NOT ADJUST THE SURFACE NORMAL FOR THE SYMMETRY PLANE 
             AT NODE 143 INSTANCE PART-1-1 OF SURFACE ASSEMBLY_S_SURF-25. THE 
             MESH MAY BE VERY COARSE OR THE SURFACE MAY BE UNTRIMMED AT THE 
             SYMMETRY PLANE. PLEASE USE THE *NORMAL OPTION TO SPECIFY THE 
             PROPER SURFACE NORMAL.

 ***WARNING: Abaqus WILL NOT ADJUST THE SURFACE NORMAL FOR THE SYMMETRY PLANE 
             AT NODE 144 INSTANCE PART-1-1 OF SURFACE ASSEMBLY_S_SURF-25. THE 
             MESH MAY BE VERY COARSE OR THE SURFACE MAY BE UNTRIMMED AT THE 
             SYMMETRY PLANE. PLEASE USE THE *NORMAL OPTION TO SPECIFY THE 
             PROPER SURFACE NORMAL.

 ***WARNING: Abaqus WILL NOT ADJUST THE SURFACE NORMAL FOR THE SYMMETRY PLANE 
             AT NODE 145 INSTANCE PART-1-1 OF SURFACE ASSEMBLY_S_SURF-25. THE 
             MESH MAY BE VERY COARSE OR THE SURFACE MAY BE UNTRIMMED AT THE 
             SYMMETRY PLANE. PLEASE USE THE *NORMAL OPTION TO SPECIFY THE 
             PROPER SURFACE NORMAL.

 ***WARNING: Abaqus WILL NOT ADJUST THE SURFACE NORMAL FOR THE SYMMETRY PLANE 
             AT NODE 146 INSTANCE PART-1-1 OF SURFACE ASSEMBLY_S_SURF-25. THE 
             MESH MAY BE VERY COARSE OR THE SURFACE MAY BE UNTRIMMED AT THE 
             SYMMETRY PLANE. PLEASE USE THE *NORMAL OPTION TO SPECIFY THE 
             PROPER SURFACE NORMAL.

 ***WARNING: Abaqus WILL NOT ADJUST THE SURFACE NORMAL FOR THE SYMMETRY PLANE 
             AT NODE 161 INSTANCE PART-1-1 OF SURFACE ASSEMBLY_S_SURF-25. THE 
             MESH MAY BE VERY COARSE OR THE SURFACE MAY BE UNTRIMMED AT THE 
             SYMMETRY PLANE. PLEASE USE THE *NORMAL OPTION TO SPECIFY THE 
             PROPER SURFACE NORMAL.

 ***WARNING: Abaqus WILL NOT ADJUST THE SURFACE NORMAL FOR THE SYMMETRY PLANE 
             AT NODE 162 INSTANCE PART-1-1 OF SURFACE ASSEMBLY_S_SURF-25. THE 
             MESH MAY BE VERY COARSE OR THE SURFACE MAY BE UNTRIMMED AT THE 
             SYMMETRY PLANE. PLEASE USE THE *NORMAL OPTION TO SPECIFY THE 
             PROPER SURFACE NORMAL.

 ***WARNING: Abaqus WILL NOT ADJUST THE SURFACE NORMAL FOR THE SYMMETRY PLANE 
             AT NODE 163 INSTANCE PART-1-1 OF SURFACE ASSEMBLY_S_SURF-25. THE 
             MESH MAY BE VERY COARSE OR THE SURFACE MAY BE UNTRIMMED AT THE 
             SYMMETRY PLANE. PLEASE USE THE *NORMAL OPTION TO SPECIFY THE 
             PROPER SURFACE NORMAL.

 ***WARNING: Abaqus WILL NOT ADJUST THE SURFACE NORMAL FOR THE SYMMETRY PLANE 
             AT NODE 164 INSTANCE PART-1-1 OF SURFACE ASSEMBLY_S_SURF-25. THE 
             MESH MAY BE VERY COARSE OR THE SURFACE MAY BE UNTRIMMED AT THE 
             SYMMETRY PLANE. PLEASE USE THE *NORMAL OPTION TO SPECIFY THE 
             PROPER SURFACE NORMAL.

 ***WARNING: Abaqus WILL NOT ADJUST THE SURFACE NORMAL FOR THE SYMMETRY PLANE 
             AT NODE 165 INSTANCE PART-1-1 OF SURFACE ASSEMBLY_S_SURF-25. THE 
             MESH MAY BE VERY COARSE OR THE SURFACE MAY BE UNTRIMMED AT THE 
             SYMMETRY PLANE. PLEASE USE THE *NORMAL OPTION TO SPECIFY THE 
             PROPER SURFACE NORMAL.

 ***WARNING: Abaqus WILL NOT ADJUST THE SURFACE NORMAL FOR THE SYMMETRY PLANE 
             AT NODE 166 INSTANCE PART-1-1 OF SURFACE ASSEMBLY_S_SURF-25. THE 
             MESH MAY BE VERY COARSE OR THE SURFACE MAY BE UNTRIMMED AT THE 
             SYMMETRY PLANE. PLEASE USE THE *NORMAL OPTION TO SPECIFY THE 
             PROPER SURFACE NORMAL.

 ***WARNING: Abaqus WILL NOT ADJUST THE SURFACE NORMAL FOR THE SYMMETRY PLANE 
             AT NODE 238 INSTANCE PART-1-1 OF SURFACE ASSEMBLY_S_SURF-25. THE 
             MESH MAY BE VERY COARSE OR THE SURFACE MAY BE UNTRIMMED AT THE 
             SYMMETRY PLANE. PLEASE USE THE *NORMAL OPTION TO SPECIFY THE 
             PROPER SURFACE NORMAL.

 ***WARNING: Abaqus WILL NOT ADJUST THE SURFACE NORMAL FOR THE SYMMETRY PLANE 
             AT NODE 239 INSTANCE PART-1-1 OF SURFACE ASSEMBLY_S_SURF-25. THE 
             MESH MAY BE VERY COARSE OR THE SURFACE MAY BE UNTRIMMED AT THE 
             SYMMETRY PLANE. PLEASE USE THE *NORMAL OPTION TO SPECIFY THE 
             PROPER SURFACE NORMAL.

 ***WARNING: Abaqus WILL NOT ADJUST THE SURFACE NORMAL FOR THE SYMMETRY PLANE 
             AT NODE 240 INSTANCE PART-1-1 OF SURFACE ASSEMBLY_S_SURF-25. THE 
             MESH MAY BE VERY COARSE OR THE SURFACE MAY BE UNTRIMMED AT THE 
             SYMMETRY PLANE. PLEASE USE THE *NORMAL OPTION TO SPECIFY THE 
             PROPER SURFACE NORMAL.

 ***WARNING: Abaqus WILL NOT ADJUST THE SURFACE NORMAL FOR THE SYMMETRY PLANE 
             AT NODE 241 INSTANCE PART-1-1 OF SURFACE ASSEMBLY_S_SURF-25. THE 
             MESH MAY BE VERY COARSE OR THE SURFACE MAY BE UNTRIMMED AT THE 
             SYMMETRY PLANE. PLEASE USE THE *NORMAL OPTION TO SPECIFY THE 
             PROPER SURFACE NORMAL.

 ***WARNING: Abaqus WILL NOT ADJUST THE SURFACE NORMAL FOR THE SYMMETRY PLANE 
             AT NODE 242 INSTANCE PART-1-1 OF SURFACE ASSEMBLY_S_SURF-25. THE 
             MESH MAY BE VERY COARSE OR THE SURFACE MAY BE UNTRIMMED AT THE 
             SYMMETRY PLANE. PLEASE USE THE *NORMAL OPTION TO SPECIFY THE 
             PROPER SURFACE NORMAL.

 ***WARNING: Abaqus WILL NOT ADJUST THE SURFACE NORMAL FOR THE SYMMETRY PLANE 
             AT NODE 243 INSTANCE PART-1-1 OF SURFACE ASSEMBLY_S_SURF-25. THE 
             MESH MAY BE VERY COARSE OR THE SURFACE MAY BE UNTRIMMED AT THE 
             SYMMETRY PLANE. PLEASE USE THE *NORMAL OPTION TO SPECIFY THE 
             PROPER SURFACE NORMAL.

 ***WARNING: Abaqus WILL NOT ADJUST THE SURFACE NORMAL FOR THE SYMMETRY PLANE 
             AT NODE 244 INSTANCE PART-1-1 OF SURFACE ASSEMBLY_S_SURF-25. THE 
             MESH MAY BE VERY COARSE OR THE SURFACE MAY BE UNTRIMMED AT THE 
             SYMMETRY PLANE. PLEASE USE THE *NORMAL OPTION TO SPECIFY THE 
             PROPER SURFACE NORMAL.

 ***WARNING: Abaqus WILL NOT ADJUST THE SURFACE NORMAL FOR THE SYMMETRY PLANE 
             AT NODE 245 INSTANCE PART-1-1 OF SURFACE ASSEMBLY_S_SURF-25. THE 
             MESH MAY BE VERY COARSE OR THE SURFACE MAY BE UNTRIMMED AT THE 
             SYMMETRY PLANE. PLEASE USE THE *NORMAL OPTION TO SPECIFY THE 
             PROPER SURFACE NORMAL.

 ***WARNING: Abaqus WILL NOT ADJUST THE SURFACE NORMAL FOR THE SYMMETRY PLANE 
             AT NODE 246 INSTANCE PART-1-1 OF SURFACE ASSEMBLY_S_SURF-25. THE 
             MESH MAY BE VERY COARSE OR THE SURFACE MAY BE UNTRIMMED AT THE 
             SYMMETRY PLANE. PLEASE USE THE *NORMAL OPTION TO SPECIFY THE 
             PROPER SURFACE NORMAL.

 ***WARNING: Abaqus WILL NOT ADJUST THE SURFACE NORMAL FOR THE SYMMETRY PLANE 
             AT NODE 267 INSTANCE PART-1-1 OF SURFACE ASSEMBLY_S_SURF-25. THE 
             MESH MAY BE VERY COARSE OR THE SURFACE MAY BE UNTRIMMED AT THE 
             SYMMETRY PLANE. PLEASE USE THE *NORMAL OPTION TO SPECIFY THE 
             PROPER SURFACE NORMAL.

 ***WARNING: Abaqus WILL NOT ADJUST THE SURFACE NORMAL FOR THE SYMMETRY PLANE 
             AT NODE 268 INSTANCE PART-1-1 OF SURFACE ASSEMBLY_S_SURF-25. THE 
             MESH MAY BE VERY COARSE OR THE SURFACE MAY BE UNTRIMMED AT THE 
             SYMMETRY PLANE. PLEASE USE THE *NORMAL OPTION TO SPECIFY THE 
             PROPER SURFACE NORMAL.

 ***WARNING: Abaqus WILL NOT ADJUST THE SURFACE NORMAL FOR THE SYMMETRY PLANE 
             AT NODE 269 INSTANCE PART-1-1 OF SURFACE ASSEMBLY_S_SURF-25. THE 
             MESH MAY BE VERY COARSE OR THE SURFACE MAY BE UNTRIMMED AT THE 
             SYMMETRY PLANE. PLEASE USE THE *NORMAL OPTION TO SPECIFY THE 
             PROPER SURFACE NORMAL.

 ***WARNING: Abaqus WILL NOT ADJUST THE SURFACE NORMAL FOR THE SYMMETRY PLANE 
             AT NODE 270 INSTANCE PART-1-1 OF SURFACE ASSEMBLY_S_SURF-25. THE 
             MESH MAY BE VERY COARSE OR THE SURFACE MAY BE UNTRIMMED AT THE 
             SYMMETRY PLANE. PLEASE USE THE *NORMAL OPTION TO SPECIFY THE 
             PROPER SURFACE NORMAL.

 ***WARNING: Abaqus WILL NOT ADJUST THE SURFACE NORMAL FOR THE SYMMETRY PLANE 
             AT NODE 271 INSTANCE PART-1-1 OF SURFACE ASSEMBLY_S_SURF-25. THE 
             MESH MAY BE VERY COARSE OR THE SURFACE MAY BE UNTRIMMED AT THE 
             SYMMETRY PLANE. PLEASE USE THE *NORMAL OPTION TO SPECIFY THE 
             PROPER SURFACE NORMAL.

 ***WARNING: Abaqus WILL NOT ADJUST THE SURFACE NORMAL FOR THE SYMMETRY PLANE 
             AT NODE 272 INSTANCE PART-1-1 OF SURFACE ASSEMBLY_S_SURF-25. THE 
             MESH MAY BE VERY COARSE OR THE SURFACE MAY BE UNTRIMMED AT THE 
             SYMMETRY PLANE. PLEASE USE THE *NORMAL OPTION TO SPECIFY THE 
             PROPER SURFACE NORMAL.

 ***WARNING: Abaqus WILL NOT ADJUST THE SURFACE NORMAL FOR THE SYMMETRY PLANE 
             AT NODE 273 INSTANCE PART-1-1 OF SURFACE ASSEMBLY_S_SURF-25. THE 
             MESH MAY BE VERY COARSE OR THE SURFACE MAY BE UNTRIMMED AT THE 
             SYMMETRY PLANE. PLEASE USE THE *NORMAL OPTION TO SPECIFY THE 
             PROPER SURFACE NORMAL.

 ***WARNING: Abaqus WILL NOT ADJUST THE SURFACE NORMAL FOR THE SYMMETRY PLANE 
             AT NODE 274 INSTANCE PART-1-1 OF SURFACE ASSEMBLY_S_SURF-25. THE 
             MESH MAY BE VERY COARSE OR THE SURFACE MAY BE UNTRIMMED AT THE 
             SYMMETRY PLANE. PLEASE USE THE *NORMAL OPTION TO SPECIFY THE 
             PROPER SURFACE NORMAL.

 ***WARNING: Abaqus WILL NOT ADJUST THE SURFACE NORMAL FOR THE SYMMETRY PLANE 
             AT NODE 275 INSTANCE PART-1-1 OF SURFACE ASSEMBLY_S_SURF-25. THE 
             MESH MAY BE VERY COARSE OR THE SURFACE MAY BE UNTRIMMED AT THE 
             SYMMETRY PLANE. PLEASE USE THE *NORMAL OPTION TO SPECIFY THE 
             PROPER SURFACE NORMAL.

 ***WARNING: Abaqus WILL NOT ADJUST THE SURFACE NORMAL FOR THE SYMMETRY PLANE 
             AT NODE 285 INSTANCE PART-1-1 OF SURFACE ASSEMBLY_S_SURF-25. THE 
             MESH MAY BE VERY COARSE OR THE SURFACE MAY BE UNTRIMMED AT THE 
             SYMMETRY PLANE. PLEASE USE THE *NORMAL OPTION TO SPECIFY THE 
             PROPER SURFACE NORMAL.

 ***WARNING: Abaqus WILL NOT ADJUST THE SURFACE NORMAL FOR THE SYMMETRY PLANE 
             AT NODE 286 INSTANCE PART-1-1 OF SURFACE ASSEMBLY_S_SURF-25. THE 
             MESH MAY BE VERY COARSE OR THE SURFACE MAY BE UNTRIMMED AT THE 
             SYMMETRY PLANE. PLEASE USE THE *NORMAL OPTION TO SPECIFY THE 
             PROPER SURFACE NORMAL.

 ***WARNING: Abaqus WILL NOT ADJUST THE SURFACE NORMAL FOR THE SYMMETRY PLANE 
             AT NODE 287 INSTANCE PART-1-1 OF SURFACE ASSEMBLY_S_SURF-25. THE 
             MESH MAY BE VERY COARSE OR THE SURFACE MAY BE UNTRIMMED AT THE 
             SYMMETRY PLANE. PLEASE USE THE *NORMAL OPTION TO SPECIFY THE 
             PROPER SURFACE NORMAL.

 ***WARNING: Abaqus WILL NOT ADJUST THE SURFACE NORMAL FOR THE SYMMETRY PLANE 
             AT NODE 288 INSTANCE PART-1-1 OF SURFACE ASSEMBLY_S_SURF-25. THE 
             MESH MAY BE VERY COARSE OR THE SURFACE MAY BE UNTRIMMED AT THE 
             SYMMETRY PLANE. PLEASE USE THE *NORMAL OPTION TO SPECIFY THE 
             PROPER SURFACE NORMAL.

 ***WARNING: Abaqus WILL NOT ADJUST THE SURFACE NORMAL FOR THE SYMMETRY PLANE 
             AT NODE 289 INSTANCE PART-1-1 OF SURFACE ASSEMBLY_S_SURF-25. THE 
             MESH MAY BE VERY COARSE OR THE SURFACE MAY BE UNTRIMMED AT THE 
             SYMMETRY PLANE. PLEASE USE THE *NORMAL OPTION TO SPECIFY THE 
             PROPER SURFACE NORMAL.

 ***WARNING: Abaqus WILL NOT ADJUST THE SURFACE NORMAL FOR THE SYMMETRY PLANE 
             AT NODE 290 INSTANCE PART-1-1 OF SURFACE ASSEMBLY_S_SURF-25. THE 
             MESH MAY BE VERY COARSE OR THE SURFACE MAY BE UNTRIMMED AT THE 
             SYMMETRY PLANE. PLEASE USE THE *NORMAL OPTION TO SPECIFY THE 
             PROPER SURFACE NORMAL.

 ***WARNING: Abaqus WILL NOT ADJUST THE SURFACE NORMAL FOR THE SYMMETRY PLANE 
             AT NODE 291 INSTANCE PART-1-1 OF SURFACE ASSEMBLY_S_SURF-25. THE 
             MESH MAY BE VERY COARSE OR THE SURFACE MAY BE UNTRIMMED AT THE 
             SYMMETRY PLANE. PLEASE USE THE *NORMAL OPTION TO SPECIFY THE 
             PROPER SURFACE NORMAL.

 ***WARNING: Abaqus WILL NOT ADJUST THE SURFACE NORMAL FOR THE SYMMETRY PLANE 
             AT NODE 292 INSTANCE PART-1-1 OF SURFACE ASSEMBLY_S_SURF-25. THE 
             MESH MAY BE VERY COARSE OR THE SURFACE MAY BE UNTRIMMED AT THE 
             SYMMETRY PLANE. PLEASE USE THE *NORMAL OPTION TO SPECIFY THE 
             PROPER SURFACE NORMAL.

 ***WARNING: Abaqus WILL NOT ADJUST THE SURFACE NORMAL FOR THE SYMMETRY PLANE 
             AT NODE 293 INSTANCE PART-1-1 OF SURFACE ASSEMBLY_S_SURF-25. THE 
             MESH MAY BE VERY COARSE OR THE SURFACE MAY BE UNTRIMMED AT THE 
             SYMMETRY PLANE. PLEASE USE THE *NORMAL OPTION TO SPECIFY THE 
             PROPER SURFACE NORMAL.

 ***WARNING: Abaqus WILL NOT ADJUST THE SURFACE NORMAL FOR THE SYMMETRY PLANE 
             AT NODE 316 INSTANCE PART-1-1 OF SURFACE ASSEMBLY_S_SURF-25. THE 
             MESH MAY BE VERY COARSE OR THE SURFACE MAY BE UNTRIMMED AT THE 
             SYMMETRY PLANE. PLEASE USE THE *NORMAL OPTION TO SPECIFY THE 
             PROPER SURFACE NORMAL.

 ***WARNING: Abaqus WILL NOT ADJUST THE SURFACE NORMAL FOR THE SYMMETRY PLANE 
             AT NODE 317 INSTANCE PART-1-1 OF SURFACE ASSEMBLY_S_SURF-25. THE 
             MESH MAY BE VERY COARSE OR THE SURFACE MAY BE UNTRIMMED AT THE 
             SYMMETRY PLANE. PLEASE USE THE *NORMAL OPTION TO SPECIFY THE 
             PROPER SURFACE NORMAL.

 ***WARNING: Abaqus WILL NOT ADJUST THE SURFACE NORMAL FOR THE SYMMETRY PLANE 
             AT NODE 318 INSTANCE PART-1-1 OF SURFACE ASSEMBLY_S_SURF-25. THE 
             MESH MAY BE VERY COARSE OR THE SURFACE MAY BE UNTRIMMED AT THE 
             SYMMETRY PLANE. PLEASE USE THE *NORMAL OPTION TO SPECIFY THE 
             PROPER SURFACE NORMAL.

 ***WARNING: Abaqus WILL NOT ADJUST THE SURFACE NORMAL FOR THE SYMMETRY PLANE 
             AT NODE 319 INSTANCE PART-1-1 OF SURFACE ASSEMBLY_S_SURF-25. THE 
             MESH MAY BE VERY COARSE OR THE SURFACE MAY BE UNTRIMMED AT THE 
             SYMMETRY PLANE. PLEASE USE THE *NORMAL OPTION TO SPECIFY THE 
             PROPER SURFACE NORMAL.

 ***WARNING: Abaqus WILL NOT ADJUST THE SURFACE NORMAL FOR THE SYMMETRY PLANE 
             AT NODE 320 INSTANCE PART-1-1 OF SURFACE ASSEMBLY_S_SURF-25. THE 
             MESH MAY BE VERY COARSE OR THE SURFACE MAY BE UNTRIMMED AT THE 
             SYMMETRY PLANE. PLEASE USE THE *NORMAL OPTION TO SPECIFY THE 
             PROPER SURFACE NORMAL.

 ***WARNING: Abaqus WILL NOT ADJUST THE SURFACE NORMAL FOR THE SYMMETRY PLANE 
             AT NODE 321 INSTANCE PART-1-1 OF SURFACE ASSEMBLY_S_SURF-25. THE 
             MESH MAY BE VERY COARSE OR THE SURFACE MAY BE UNTRIMMED AT THE 
             SYMMETRY PLANE. PLEASE USE THE *NORMAL OPTION TO SPECIFY THE 
             PROPER SURFACE NORMAL.

 ***WARNING: Abaqus WILL NOT ADJUST THE SURFACE NORMAL FOR THE SYMMETRY PLANE 
             AT NODE 322 INSTANCE PART-1-1 OF SURFACE ASSEMBLY_S_SURF-25. THE 
             MESH MAY BE VERY COARSE OR THE SURFACE MAY BE UNTRIMMED AT THE 
             SYMMETRY PLANE. PLEASE USE THE *NORMAL OPTION TO SPECIFY THE 
             PROPER SURFACE NORMAL.

 ***WARNING: Abaqus WILL NOT ADJUST THE SURFACE NORMAL FOR THE SYMMETRY PLANE 
             AT NODE 323 INSTANCE PART-1-1 OF SURFACE ASSEMBLY_S_SURF-25. THE 
             MESH MAY BE VERY COARSE OR THE SURFACE MAY BE UNTRIMMED AT THE 
             SYMMETRY PLANE. PLEASE USE THE *NORMAL OPTION TO SPECIFY THE 
             PROPER SURFACE NORMAL.

 ***WARNING: Abaqus WILL NOT ADJUST THE SURFACE NORMAL FOR THE SYMMETRY PLANE 
             AT NODE 324 INSTANCE PART-1-1 OF SURFACE ASSEMBLY_S_SURF-25. THE 
             MESH MAY BE VERY COARSE OR THE SURFACE MAY BE UNTRIMMED AT THE 
             SYMMETRY PLANE. PLEASE USE THE *NORMAL OPTION TO SPECIFY THE 
             PROPER SURFACE NORMAL.

 ***WARNING: Abaqus WILL NOT ADJUST THE SURFACE NORMAL FOR THE SYMMETRY PLANE 
             AT NODE 345 INSTANCE PART-1-1 OF SURFACE ASSEMBLY_S_SURF-25. THE 
             MESH MAY BE VERY COARSE OR THE SURFACE MAY BE UNTRIMMED AT THE 
             SYMMETRY PLANE. PLEASE USE THE *NORMAL OPTION TO SPECIFY THE 
             PROPER SURFACE NORMAL.

 ***WARNING: Abaqus WILL NOT ADJUST THE SURFACE NORMAL FOR THE SYMMETRY PLANE 
             AT NODE 346 INSTANCE PART-1-1 OF SURFACE ASSEMBLY_S_SURF-25. THE 
             MESH MAY BE VERY COARSE OR THE SURFACE MAY BE UNTRIMMED AT THE 
             SYMMETRY PLANE. PLEASE USE THE *NORMAL OPTION TO SPECIFY THE 
             PROPER SURFACE NORMAL.

 ***WARNING: Abaqus WILL NOT ADJUST THE SURFACE NORMAL FOR THE SYMMETRY PLANE 
             AT NODE 347 INSTANCE PART-1-1 OF SURFACE ASSEMBLY_S_SURF-25. THE 
             MESH MAY BE VERY COARSE OR THE SURFACE MAY BE UNTRIMMED AT THE 
             SYMMETRY PLANE. PLEASE USE THE *NORMAL OPTION TO SPECIFY THE 
             PROPER SURFACE NORMAL.

 ***WARNING: Abaqus WILL NOT ADJUST THE SURFACE NORMAL FOR THE SYMMETRY PLANE 
             AT NODE 348 INSTANCE PART-1-1 OF SURFACE ASSEMBLY_S_SURF-25. THE 
             MESH MAY BE VERY COARSE OR THE SURFACE MAY BE UNTRIMMED AT THE 
             SYMMETRY PLANE. PLEASE USE THE *NORMAL OPTION TO SPECIFY THE 
             PROPER SURFACE NORMAL.

 ***WARNING: Abaqus WILL NOT ADJUST THE SURFACE NORMAL FOR THE SYMMETRY PLANE 
             AT NODE 349 INSTANCE PART-1-1 OF SURFACE ASSEMBLY_S_SURF-25. THE 
             MESH MAY BE VERY COARSE OR THE SURFACE MAY BE UNTRIMMED AT THE 
             SYMMETRY PLANE. PLEASE USE THE *NORMAL OPTION TO SPECIFY THE 
             PROPER SURFACE NORMAL.

 ***WARNING: Abaqus WILL NOT ADJUST THE SURFACE NORMAL FOR THE SYMMETRY PLANE 
             AT NODE 350 INSTANCE PART-1-1 OF SURFACE ASSEMBLY_S_SURF-25. THE 
             MESH MAY BE VERY COARSE OR THE SURFACE MAY BE UNTRIMMED AT THE 
             SYMMETRY PLANE. PLEASE USE THE *NORMAL OPTION TO SPECIFY THE 
             PROPER SURFACE NORMAL.

 ***WARNING: Abaqus WILL NOT ADJUST THE SURFACE NORMAL FOR THE SYMMETRY PLANE 
             AT NODE 351 INSTANCE PART-1-1 OF SURFACE ASSEMBLY_S_SURF-25. THE 
             MESH MAY BE VERY COARSE OR THE SURFACE MAY BE UNTRIMMED AT THE 
             SYMMETRY PLANE. PLEASE USE THE *NORMAL OPTION TO SPECIFY THE 
             PROPER SURFACE NORMAL.

 ***WARNING: Abaqus WILL NOT ADJUST THE SURFACE NORMAL FOR THE SYMMETRY PLANE 
             AT NODE 352 INSTANCE PART-1-1 OF SURFACE ASSEMBLY_S_SURF-25. THE 
             MESH MAY BE VERY COARSE OR THE SURFACE MAY BE UNTRIMMED AT THE 
             SYMMETRY PLANE. PLEASE USE THE *NORMAL OPTION TO SPECIFY THE 
             PROPER SURFACE NORMAL.

 ***WARNING: Abaqus WILL NOT ADJUST THE SURFACE NORMAL FOR THE SYMMETRY PLANE 
             AT NODE 353 INSTANCE PART-1-1 OF SURFACE ASSEMBLY_S_SURF-25. THE 
             MESH MAY BE VERY COARSE OR THE SURFACE MAY BE UNTRIMMED AT THE 
             SYMMETRY PLANE. PLEASE USE THE *NORMAL OPTION TO SPECIFY THE 
             PROPER SURFACE NORMAL.

 ***WARNING: Abaqus WILL NOT ADJUST THE SURFACE NORMAL FOR THE SYMMETRY PLANE 
             AT NODE 383 INSTANCE PART-1-1 OF SURFACE ASSEMBLY_S_SURF-25. THE 
             MESH MAY BE VERY COARSE OR THE SURFACE MAY BE UNTRIMMED AT THE 
             SYMMETRY PLANE. PLEASE USE THE *NORMAL OPTION TO SPECIFY THE 
             PROPER SURFACE NORMAL.

 ***WARNING: Abaqus WILL NOT ADJUST THE SURFACE NORMAL FOR THE SYMMETRY PLANE 
             AT NODE 384 INSTANCE PART-1-1 OF SURFACE ASSEMBLY_S_SURF-25. THE 
             MESH MAY BE VERY COARSE OR THE SURFACE MAY BE UNTRIMMED AT THE 
             SYMMETRY PLANE. PLEASE USE THE *NORMAL OPTION TO SPECIFY THE 
             PROPER SURFACE NORMAL.

 ***WARNING: Abaqus WILL NOT ADJUST THE SURFACE NORMAL FOR THE SYMMETRY PLANE 
             AT NODE 385 INSTANCE PART-1-1 OF SURFACE ASSEMBLY_S_SURF-25. THE 
             MESH MAY BE VERY COARSE OR THE SURFACE MAY BE UNTRIMMED AT THE 
             SYMMETRY PLANE. PLEASE USE THE *NORMAL OPTION TO SPECIFY THE 
             PROPER SURFACE NORMAL.

 ***WARNING: Abaqus WILL NOT ADJUST THE SURFACE NORMAL FOR THE SYMMETRY PLANE 
             AT NODE 386 INSTANCE PART-1-1 OF SURFACE ASSEMBLY_S_SURF-25. THE 
             MESH MAY BE VERY COARSE OR THE SURFACE MAY BE UNTRIMMED AT THE 
             SYMMETRY PLANE. PLEASE USE THE *NORMAL OPTION TO SPECIFY THE 
             PROPER SURFACE NORMAL.

 ***WARNING: Abaqus WILL NOT ADJUST THE SURFACE NORMAL FOR THE SYMMETRY PLANE 
             AT NODE 387 INSTANCE PART-1-1 OF SURFACE ASSEMBLY_S_SURF-25. THE 
             MESH MAY BE VERY COARSE OR THE SURFACE MAY BE UNTRIMMED AT THE 
             SYMMETRY PLANE. PLEASE USE THE *NORMAL OPTION TO SPECIFY THE 
             PROPER SURFACE NORMAL.

 ***WARNING: Abaqus WILL NOT ADJUST THE SURFACE NORMAL FOR THE SYMMETRY PLANE 
             AT NODE 388 INSTANCE PART-1-1 OF SURFACE ASSEMBLY_S_SURF-25. THE 
             MESH MAY BE VERY COARSE OR THE SURFACE MAY BE UNTRIMMED AT THE 
             SYMMETRY PLANE. PLEASE USE THE *NORMAL OPTION TO SPECIFY THE 
             PROPER SURFACE NORMAL.

 ***WARNING: Abaqus WILL NOT ADJUST THE SURFACE NORMAL FOR THE SYMMETRY PLANE 
             AT NODE 389 INSTANCE PART-1-1 OF SURFACE ASSEMBLY_S_SURF-25. THE 
             MESH MAY BE VERY COARSE OR THE SURFACE MAY BE UNTRIMMED AT THE 
             SYMMETRY PLANE. PLEASE USE THE *NORMAL OPTION TO SPECIFY THE 
             PROPER SURFACE NORMAL.

 ***WARNING: Abaqus WILL NOT ADJUST THE SURFACE NORMAL FOR THE SYMMETRY PLANE 
             AT NODE 390 INSTANCE PART-1-1 OF SURFACE ASSEMBLY_S_SURF-25. THE 
             MESH MAY BE VERY COARSE OR THE SURFACE MAY BE UNTRIMMED AT THE 
             SYMMETRY PLANE. PLEASE USE THE *NORMAL OPTION TO SPECIFY THE 
             PROPER SURFACE NORMAL.

 ***WARNING: Abaqus WILL NOT ADJUST THE SURFACE NORMAL FOR THE SYMMETRY PLANE 
             AT NODE 391 INSTANCE PART-1-1 OF SURFACE ASSEMBLY_S_SURF-25. THE 
             MESH MAY BE VERY COARSE OR THE SURFACE MAY BE UNTRIMMED AT THE 
             SYMMETRY PLANE. PLEASE USE THE *NORMAL OPTION TO SPECIFY THE 
             PROPER SURFACE NORMAL.

 ***WARNING: Abaqus WILL NOT ADJUST THE SURFACE NORMAL FOR THE SYMMETRY PLANE 
             AT NODE 407 INSTANCE PART-1-1 OF SURFACE ASSEMBLY_S_SURF-25. THE 
             MESH MAY BE VERY COARSE OR THE SURFACE MAY BE UNTRIMMED AT THE 
             SYMMETRY PLANE. PLEASE USE THE *NORMAL OPTION TO SPECIFY THE 
             PROPER SURFACE NORMAL.

 ***WARNING: Abaqus WILL NOT ADJUST THE SURFACE NORMAL FOR THE SYMMETRY PLANE 
             AT NODE 408 INSTANCE PART-1-1 OF SURFACE ASSEMBLY_S_SURF-25. THE 
             MESH MAY BE VERY COARSE OR THE SURFACE MAY BE UNTRIMMED AT THE 
             SYMMETRY PLANE. PLEASE USE THE *NORMAL OPTION TO SPECIFY THE 
             PROPER SURFACE NORMAL.

 ***WARNING: Abaqus WILL NOT ADJUST THE SURFACE NORMAL FOR THE SYMMETRY PLANE 
             AT NODE 409 INSTANCE PART-1-1 OF SURFACE ASSEMBLY_S_SURF-25. THE 
             MESH MAY BE VERY COARSE OR THE SURFACE MAY BE UNTRIMMED AT THE 
             SYMMETRY PLANE. PLEASE USE THE *NORMAL OPTION TO SPECIFY THE 
             PROPER SURFACE NORMAL.

 ***WARNING: Abaqus WILL NOT ADJUST THE SURFACE NORMAL FOR THE SYMMETRY PLANE 
             AT NODE 410 INSTANCE PART-1-1 OF SURFACE ASSEMBLY_S_SURF-25. THE 
             MESH MAY BE VERY COARSE OR THE SURFACE MAY BE UNTRIMMED AT THE 
             SYMMETRY PLANE. PLEASE USE THE *NORMAL OPTION TO SPECIFY THE 
             PROPER SURFACE NORMAL.

 ***WARNING: Abaqus WILL NOT ADJUST THE SURFACE NORMAL FOR THE SYMMETRY PLANE 
             AT NODE 411 INSTANCE PART-1-1 OF SURFACE ASSEMBLY_S_SURF-25. THE 
             MESH MAY BE VERY COARSE OR THE SURFACE MAY BE UNTRIMMED AT THE 
             SYMMETRY PLANE. PLEASE USE THE *NORMAL OPTION TO SPECIFY THE 
             PROPER SURFACE NORMAL.

 ***WARNING: Abaqus WILL NOT ADJUST THE SURFACE NORMAL FOR THE SYMMETRY PLANE 
             AT NODE 412 INSTANCE PART-1-1 OF SURFACE ASSEMBLY_S_SURF-25. THE 
             MESH MAY BE VERY COARSE OR THE SURFACE MAY BE UNTRIMMED AT THE 
             SYMMETRY PLANE. PLEASE USE THE *NORMAL OPTION TO SPECIFY THE 
             PROPER SURFACE NORMAL.

 ***WARNING: Abaqus WILL NOT ADJUST THE SURFACE NORMAL FOR THE SYMMETRY PLANE 
             AT NODE 437 INSTANCE PART-1-1 OF SURFACE ASSEMBLY_S_SURF-25. THE 
             MESH MAY BE VERY COARSE OR THE SURFACE MAY BE UNTRIMMED AT THE 
             SYMMETRY PLANE. PLEASE USE THE *NORMAL OPTION TO SPECIFY THE 
             PROPER SURFACE NORMAL.

 ***WARNING: Abaqus WILL NOT ADJUST THE SURFACE NORMAL FOR THE SYMMETRY PLANE 
             AT NODE 438 INSTANCE PART-1-1 OF SURFACE ASSEMBLY_S_SURF-25. THE 
             MESH MAY BE VERY COARSE OR THE SURFACE MAY BE UNTRIMMED AT THE 
             SYMMETRY PLANE. PLEASE USE THE *NORMAL OPTION TO SPECIFY THE 
             PROPER SURFACE NORMAL.

 ***WARNING: Abaqus WILL NOT ADJUST THE SURFACE NORMAL FOR THE SYMMETRY PLANE 
             AT NODE 439 INSTANCE PART-1-1 OF SURFACE ASSEMBLY_S_SURF-25. THE 
             MESH MAY BE VERY COARSE OR THE SURFACE MAY BE UNTRIMMED AT THE 
             SYMMETRY PLANE. PLEASE USE THE *NORMAL OPTION TO SPECIFY THE 
             PROPER SURFACE NORMAL.

 ***WARNING: Abaqus WILL NOT ADJUST THE SURFACE NORMAL FOR THE SYMMETRY PLANE 
             AT NODE 440 INSTANCE PART-1-1 OF SURFACE ASSEMBLY_S_SURF-25. THE 
             MESH MAY BE VERY COARSE OR THE SURFACE MAY BE UNTRIMMED AT THE 
             SYMMETRY PLANE. PLEASE USE THE *NORMAL OPTION TO SPECIFY THE 
             PROPER SURFACE NORMAL.

 ***WARNING: Abaqus WILL NOT ADJUST THE SURFACE NORMAL FOR THE SYMMETRY PLANE 
             AT NODE 441 INSTANCE PART-1-1 OF SURFACE ASSEMBLY_S_SURF-25. THE 
             MESH MAY BE VERY COARSE OR THE SURFACE MAY BE UNTRIMMED AT THE 
             SYMMETRY PLANE. PLEASE USE THE *NORMAL OPTION TO SPECIFY THE 
             PROPER SURFACE NORMAL.

 ***WARNING: Abaqus WILL NOT ADJUST THE SURFACE NORMAL FOR THE SYMMETRY PLANE 
             AT NODE 442 INSTANCE PART-1-1 OF SURFACE ASSEMBLY_S_SURF-25. THE 
             MESH MAY BE VERY COARSE OR THE SURFACE MAY BE UNTRIMMED AT THE 
             SYMMETRY PLANE. PLEASE USE THE *NORMAL OPTION TO SPECIFY THE 
             PROPER SURFACE NORMAL.

 ***WARNING: 108 nodes may have incorrect normal definitions. The nodes have 
             been identified in node set WarnNodeIncorrectNormal.

 ***WARNING: FOR *TIE PAIR (ASSEMBLY_S_SURF-25-ASSEMBLY_M_SURF-25), ADJUSTED 
             NODES WITH VERY SMALL ADJUSTMENTS WERE NOT PRINTED. SPECIFY 
             *PREPRINT,MODEL=YES FOR COMPLETE PRINTOUT.
  *contactpair, interaction=INTPROP-1, type=SURFACETOSURFACE
  *tie, name=ASSEMBLY_CONSTRAINT-1, adjust=YES
  *tie, name=ASSEMBLY_CONSTRAINT-1, adjust=YES
  *surfaceinteraction, name=INTPROP-1
  *contactpair, interaction=INTPROP-1, type=SURFACETOSURFACE
  *surface, type=ELEMENT, name=ASSEMBLY_SURF-27
  *surface, type=ELEMENT, name=ASSEMBLY_M_SURF-23
  *surface, type=ELEMENT, name=ASSEMBLY_M_SURF-25
  *surface, type=ELEMENT, name=ASSEMBLY_S_SURF-23
  *surface, type=ELEMENT, name=ASSEMBLY_S_SURF-25
  *tie, name=ASSEMBLY_CONSTRAINT-1, adjust=YES
  *output, field
  *output, history, variable=PRESELECT
  *elementoutput, directions=YES
  *output, field
  *output, history, variable=PRESELECT
  *elementoutput, directions=YES
  *output, field
  *output, history, variable=PRESELECT
  *elementoutput, directions=YES
  *Step, name=Step-1, nlgeom=YES
  *output, field
  *output, history, variable=PRESELECT
  *Step, name=Step-1, nlgeom=YES
  *Step, name=Step-1, nlgeom=YES
  *static
  *boundary
  *boundary
  *dsload
  *output, field
  *nodeoutput
  *elementoutput, directions=YES
  *output, history, variable=PRESELECT
  *endstep
  *Step, name=Step-1, nlgeom=YES
  *static
  *boundary
  *boundary
  *endstep

     - (RAMP) OR (STEP) - INDICATE USE OF DEFAULT AMPLITUDES ASSOCIATED WITH THE STEP

 ***WARNING: DEGREE OF FREEDOM 1 HAS BEEN ELIMINATED AT NODE 1 INSTANCE 
             PART-1-1 BOUNDARY CONDITION TYPE YASYMM MAY NOT BE APPLIED AT THIS 
             NODE

 ***WARNING: DEGREE OF FREEDOM 3 HAS BEEN ELIMINATED AT NODE 1 INSTANCE 
             PART-1-1 BOUNDARY CONDITION TYPE YASYMM MAY NOT BE APPLIED AT THIS 
             NODE

 ***WARNING: DEGREE OF FREEDOM 1 HAS BEEN ELIMINATED AT NODE 7 INSTANCE 
             PART-1-1 BOUNDARY CONDITION TYPE YASYMM MAY NOT BE APPLIED AT THIS 
             NODE

 ***WARNING: DEGREE OF FREEDOM 3 HAS BEEN ELIMINATED AT NODE 7 INSTANCE 
             PART-1-1 BOUNDARY CONDITION TYPE YASYMM MAY NOT BE APPLIED AT THIS 
             NODE

 ***WARNING: DEGREE OF FREEDOM 1 HAS BEEN ELIMINATED AT NODE 8 INSTANCE 
             PART-1-1 BOUNDARY CONDITION TYPE YASYMM MAY NOT BE APPLIED AT THIS 
             NODE

 ***WARNING: DEGREE OF FREEDOM 3 HAS BEEN ELIMINATED AT NODE 8 INSTANCE 
             PART-1-1 BOUNDARY CONDITION TYPE YASYMM MAY NOT BE APPLIED AT THIS 
             NODE

 ***WARNING: DEGREE OF FREEDOM 1 HAS BEEN ELIMINATED AT NODE 9 INSTANCE 
             PART-1-1 BOUNDARY CONDITION TYPE YASYMM MAY NOT BE APPLIED AT THIS 
             NODE

 ***WARNING: DEGREE OF FREEDOM 3 HAS BEEN ELIMINATED AT NODE 9 INSTANCE 
             PART-1-1 BOUNDARY CONDITION TYPE YASYMM MAY NOT BE APPLIED AT THIS 
             NODE

 ***WARNING: DEGREE OF FREEDOM 1 HAS BEEN ELIMINATED AT NODE 14 INSTANCE 
             PART-1-1 BOUNDARY CONDITION TYPE YASYMM MAY NOT BE APPLIED AT THIS 
             NODE

 ***WARNING: DEGREE OF FREEDOM 3 HAS BEEN ELIMINATED AT NODE 14 INSTANCE 
             PART-1-1 BOUNDARY CONDITION TYPE YASYMM MAY NOT BE APPLIED AT THIS 
             NODE

 ***WARNING: DEGREE OF FREEDOM 1 HAS BEEN ELIMINATED AT NODE 15 INSTANCE 
             PART-1-1 BOUNDARY CONDITION TYPE YASYMM MAY NOT BE APPLIED AT THIS 
             NODE

 ***WARNING: DEGREE OF FREEDOM 3 HAS BEEN ELIMINATED AT NODE 15 INSTANCE 
             PART-1-1 BOUNDARY CONDITION TYPE YASYMM MAY NOT BE APPLIED AT THIS 
             NODE

 ***WARNING: DEGREE OF FREEDOM 1 HAS BEEN ELIMINATED AT NODE 22 INSTANCE 
             PART-1-1 BOUNDARY CONDITION TYPE YASYMM MAY NOT BE APPLIED AT THIS 
             NODE

 ***WARNING: DEGREE OF FREEDOM 3 HAS BEEN ELIMINATED AT NODE 22 INSTANCE 
             PART-1-1 BOUNDARY CONDITION TYPE YASYMM MAY NOT BE APPLIED AT THIS 
             NODE

 ***WARNING: DEGREE OF FREEDOM 1 HAS BEEN ELIMINATED AT NODE 24 INSTANCE 
             PART-1-1 BOUNDARY CONDITION TYPE YASYMM MAY NOT BE APPLIED AT THIS 
             NODE

 ***WARNING: DEGREE OF FREEDOM 3 HAS BEEN ELIMINATED AT NODE 24 INSTANCE 
             PART-1-1 BOUNDARY CONDITION TYPE YASYMM MAY NOT BE APPLIED AT THIS 
             NODE

 ***WARNING: DEGREE OF FREEDOM 1 HAS BEEN ELIMINATED AT NODE 25 INSTANCE 
             PART-1-1 BOUNDARY CONDITION TYPE YASYMM MAY NOT BE APPLIED AT THIS 
             NODE

 ***WARNING: DEGREE OF FREEDOM 3 HAS BEEN ELIMINATED AT NODE 25 INSTANCE 
             PART-1-1 BOUNDARY CONDITION TYPE YASYMM MAY NOT BE APPLIED AT THIS 
             NODE

 ***WARNING: DEGREE OF FREEDOM 1 HAS BEEN ELIMINATED AT NODE 26 INSTANCE 
             PART-1-1 BOUNDARY CONDITION TYPE YASYMM MAY NOT BE APPLIED AT THIS 
             NODE

 ***WARNING: DEGREE OF FREEDOM 3 HAS BEEN ELIMINATED AT NODE 26 INSTANCE 
             PART-1-1 BOUNDARY CONDITION TYPE YASYMM MAY NOT BE APPLIED AT THIS 
             NODE

 ***WARNING: DEGREE OF FREEDOM 1 HAS BEEN ELIMINATED AT NODE 30 INSTANCE 
             PART-1-1 BOUNDARY CONDITION TYPE YASYMM MAY NOT BE APPLIED AT THIS 
             NODE

 ***WARNING: DEGREE OF FREEDOM 3 HAS BEEN ELIMINATED AT NODE 30 INSTANCE 
             PART-1-1 BOUNDARY CONDITION TYPE YASYMM MAY NOT BE APPLIED AT THIS 
             NODE

 ***WARNING: DEGREE OF FREEDOM 1 HAS BEEN ELIMINATED AT NODE 31 INSTANCE 
             PART-1-1 BOUNDARY CONDITION TYPE YASYMM MAY NOT BE APPLIED AT THIS 
             NODE

 ***WARNING: DEGREE OF FREEDOM 3 HAS BEEN ELIMINATED AT NODE 31 INSTANCE 
             PART-1-1 BOUNDARY CONDITION TYPE YASYMM MAY NOT BE APPLIED AT THIS 
             NODE

 ***WARNING: DEGREE OF FREEDOM 1 HAS BEEN ELIMINATED AT NODE 68 INSTANCE 
             PART-1-1 BOUNDARY CONDITION TYPE YASYMM MAY NOT BE APPLIED AT THIS 
             NODE

 ***WARNING: DEGREE OF FREEDOM 3 HAS BEEN ELIMINATED AT NODE 68 INSTANCE 
             PART-1-1 BOUNDARY CONDITION TYPE YASYMM MAY NOT BE APPLIED AT THIS 
             NODE

 ***WARNING: DEGREE OF FREEDOM 1 HAS BEEN ELIMINATED AT NODE 69 INSTANCE 
             PART-1-1 BOUNDARY CONDITION TYPE YASYMM MAY NOT BE APPLIED AT THIS 
             NODE

 ***WARNING: DEGREE OF FREEDOM 3 HAS BEEN ELIMINATED AT NODE 69 INSTANCE 
             PART-1-1 BOUNDARY CONDITION TYPE YASYMM MAY NOT BE APPLIED AT THIS 
             NODE

 ***WARNING: DEGREE OF FREEDOM 1 HAS BEEN ELIMINATED AT NODE 70 INSTANCE 
             PART-1-1 BOUNDARY CONDITION TYPE YASYMM MAY NOT BE APPLIED AT THIS 
             NODE

 ***WARNING: DEGREE OF FREEDOM 3 HAS BEEN ELIMINATED AT NODE 70 INSTANCE 
             PART-1-1 BOUNDARY CONDITION TYPE YASYMM MAY NOT BE APPLIED AT THIS 
             NODE

 ***WARNING: DEGREE OF FREEDOM 1 HAS BEEN ELIMINATED AT NODE 71 INSTANCE 
             PART-1-1 BOUNDARY CONDITION TYPE YASYMM MAY NOT BE APPLIED AT THIS 
             NODE

[...]

 ***WARNING: DEGREE OF FREEDOM 3 HAS BEEN ELIMINATED AT NODE 292 INSTANCE 
             PART-1-1 BOUNDARY CONDITION TYPE YASYMM MAY NOT BE APPLIED AT THIS 
             NODE

 ***WARNING: DEGREE OF FREEDOM 1 HAS BEEN ELIMINATED AT NODE 293 INSTANCE 
             PART-1-1 BOUNDARY CONDITION TYPE YASYMM MAY NOT BE APPLIED AT THIS 
             NODE

 ***WARNING: DEGREE OF FREEDOM 3 HAS BEEN ELIMINATED AT NODE 293 INSTANCE 
             PART-1-1 BOUNDARY CONDITION TYPE YASYMM MAY NOT BE APPLIED AT THIS 
             NODE

 ***WARNING: DEGREE OF FREEDOM 1 HAS BEEN ELIMINATED AT NODE 316 INSTANCE 
             PART-1-1 BOUNDARY CONDITION TYPE YASYMM MAY NOT BE APPLIED AT THIS 
             NODE

 ***WARNING: DEGREE OF FREEDOM 3 HAS BEEN ELIMINATED AT NODE 316 INSTANCE 
             PART-1-1 BOUNDARY CONDITION TYPE YASYMM MAY NOT BE APPLIED AT THIS 
             NODE

 ***WARNING: DEGREE OF FREEDOM 1 HAS BEEN ELIMINATED AT NODE 317 INSTANCE 
             PART-1-1 BOUNDARY CONDITION TYPE YASYMM MAY NOT BE APPLIED AT THIS 
             NODE

 ***WARNING: DEGREE OF FREEDOM 3 HAS BEEN ELIMINATED AT NODE 317 INSTANCE 
             PART-1-1 BOUNDARY CONDITION TYPE YASYMM MAY NOT BE APPLIED AT THIS 
             NODE

 ***WARNING: DEGREE OF FREEDOM 1 HAS BEEN ELIMINATED AT NODE 318 INSTANCE 
             PART-1-1 BOUNDARY CONDITION TYPE YASYMM MAY NOT BE APPLIED AT THIS 
             NODE

 ***WARNING: DEGREE OF FREEDOM 3 HAS BEEN ELIMINATED AT NODE 318 INSTANCE 
             PART-1-1 BOUNDARY CONDITION TYPE YASYMM MAY NOT BE APPLIED AT THIS 
             NODE

 ***WARNING: DEGREE OF FREEDOM 1 HAS BEEN ELIMINATED AT NODE 319 INSTANCE 
             PART-1-1 BOUNDARY CONDITION TYPE YASYMM MAY NOT BE APPLIED AT THIS 
             NODE

 ***WARNING: DEGREE OF FREEDOM 3 HAS BEEN ELIMINATED AT NODE 319 INSTANCE 
             PART-1-1 BOUNDARY CONDITION TYPE YASYMM MAY NOT BE APPLIED AT THIS 
             NODE

 ***WARNING: DEGREE OF FREEDOM 1 HAS BEEN ELIMINATED AT NODE 320 INSTANCE 
             PART-1-1 BOUNDARY CONDITION TYPE YASYMM MAY NOT BE APPLIED AT THIS 
             NODE

 ***WARNING: DEGREE OF FREEDOM 3 HAS BEEN ELIMINATED AT NODE 320 INSTANCE 
             PART-1-1 BOUNDARY CONDITION TYPE YASYMM MAY NOT BE APPLIED AT THIS 
             NODE

 ***WARNING: DEGREE OF FREEDOM 1 HAS BEEN ELIMINATED AT NODE 321 INSTANCE 
             PART-1-1 BOUNDARY CONDITION TYPE YASYMM MAY NOT BE APPLIED AT THIS 
             NODE

 ***WARNING: DEGREE OF FREEDOM 3 HAS BEEN ELIMINATED AT NODE 321 INSTANCE 
             PART-1-1 BOUNDARY CONDITION TYPE YASYMM MAY NOT BE APPLIED AT THIS 
             NODE

 ***WARNING: DEGREE OF FREEDOM 1 HAS BEEN ELIMINATED AT NODE 322 INSTANCE 
             PART-1-1 BOUNDARY CONDITION TYPE YASYMM MAY NOT BE APPLIED AT THIS 
             NODE

 ***WARNING: DEGREE OF FREEDOM 3 HAS BEEN ELIMINATED AT NODE 322 INSTANCE 
             PART-1-1 BOUNDARY CONDITION TYPE YASYMM MAY NOT BE APPLIED AT THIS 
             NODE

 ***WARNING: DEGREE OF FREEDOM 1 HAS BEEN ELIMINATED AT NODE 323 INSTANCE 
             PART-1-1 BOUNDARY CONDITION TYPE YASYMM MAY NOT BE APPLIED AT THIS 
             NODE

 ***WARNING: DEGREE OF FREEDOM 3 HAS BEEN ELIMINATED AT NODE 323 INSTANCE 
             PART-1-1 BOUNDARY CONDITION TYPE YASYMM MAY NOT BE APPLIED AT THIS 
             NODE

 ***WARNING: DEGREE OF FREEDOM 1 HAS BEEN ELIMINATED AT NODE 324 INSTANCE 
             PART-1-1 BOUNDARY CONDITION TYPE YASYMM MAY NOT BE APPLIED AT THIS 
             NODE

 ***WARNING: DEGREE OF FREEDOM 3 HAS BEEN ELIMINATED AT NODE 324 INSTANCE 
             PART-1-1 BOUNDARY CONDITION TYPE YASYMM MAY NOT BE APPLIED AT THIS 
             NODE

 ***WARNING: DEGREE OF FREEDOM 1 HAS BEEN ELIMINATED AT NODE 345 INSTANCE 
             PART-1-1 BOUNDARY CONDITION TYPE YASYMM MAY NOT BE APPLIED AT THIS 
             NODE

 ***WARNING: DEGREE OF FREEDOM 3 HAS BEEN ELIMINATED AT NODE 345 INSTANCE 
             PART-1-1 BOUNDARY CONDITION TYPE YASYMM MAY NOT BE APPLIED AT THIS 
             NODE

 ***WARNING: DEGREE OF FREEDOM 1 HAS BEEN ELIMINATED AT NODE 346 INSTANCE 
             PART-1-1 BOUNDARY CONDITION TYPE YASYMM MAY NOT BE APPLIED AT THIS 
             NODE

 ***WARNING: DEGREE OF FREEDOM 3 HAS BEEN ELIMINATED AT NODE 346 INSTANCE 
             PART-1-1 BOUNDARY CONDITION TYPE YASYMM MAY NOT BE APPLIED AT THIS 
             NODE

 ***WARNING: DEGREE OF FREEDOM 1 HAS BEEN ELIMINATED AT NODE 347 INSTANCE 
             PART-1-1 BOUNDARY CONDITION TYPE YASYMM MAY NOT BE APPLIED AT THIS 
             NODE

 ***WARNING: DEGREE OF FREEDOM 3 HAS BEEN ELIMINATED AT NODE 347 INSTANCE 
             PART-1-1 BOUNDARY CONDITION TYPE YASYMM MAY NOT BE APPLIED AT THIS 
             NODE

 ***WARNING: DEGREE OF FREEDOM 1 HAS BEEN ELIMINATED AT NODE 348 INSTANCE 
             PART-1-1 BOUNDARY CONDITION TYPE YASYMM MAY NOT BE APPLIED AT THIS 
             NODE

 ***WARNING: DEGREE OF FREEDOM 3 HAS BEEN ELIMINATED AT NODE 348 INSTANCE 
             PART-1-1 BOUNDARY CONDITION TYPE YASYMM MAY NOT BE APPLIED AT THIS 
             NODE

 ***WARNING: DEGREE OF FREEDOM 1 HAS BEEN ELIMINATED AT NODE 349 INSTANCE 
             PART-1-1 BOUNDARY CONDITION TYPE YASYMM MAY NOT BE APPLIED AT THIS 
             NODE

 ***WARNING: DEGREE OF FREEDOM 3 HAS BEEN ELIMINATED AT NODE 349 INSTANCE 
             PART-1-1 BOUNDARY CONDITION TYPE YASYMM MAY NOT BE APPLIED AT THIS 
             NODE

 ***WARNING: DEGREE OF FREEDOM 1 HAS BEEN ELIMINATED AT NODE 350 INSTANCE 
             PART-1-1 BOUNDARY CONDITION TYPE YASYMM MAY NOT BE APPLIED AT THIS 
             NODE

 ***WARNING: DEGREE OF FREEDOM 3 HAS BEEN ELIMINATED AT NODE 350 INSTANCE 
             PART-1-1 BOUNDARY CONDITION TYPE YASYMM MAY NOT BE APPLIED AT THIS 
             NODE

 ***WARNING: DEGREE OF FREEDOM 1 HAS BEEN ELIMINATED AT NODE 351 INSTANCE 
             PART-1-1 BOUNDARY CONDITION TYPE YASYMM MAY NOT BE APPLIED AT THIS 
             NODE

 ***WARNING: DEGREE OF FREEDOM 3 HAS BEEN ELIMINATED AT NODE 351 INSTANCE 
             PART-1-1 BOUNDARY CONDITION TYPE YASYMM MAY NOT BE APPLIED AT THIS 
             NODE

 ***WARNING: DEGREE OF FREEDOM 1 HAS BEEN ELIMINATED AT NODE 352 INSTANCE 
             PART-1-1 BOUNDARY CONDITION TYPE YASYMM MAY NOT BE APPLIED AT THIS 
             NODE

 ***WARNING: DEGREE OF FREEDOM 3 HAS BEEN ELIMINATED AT NODE 352 INSTANCE 
             PART-1-1 BOUNDARY CONDITION TYPE YASYMM MAY NOT BE APPLIED AT THIS 
             NODE

 ***WARNING: DEGREE OF FREEDOM 1 HAS BEEN ELIMINATED AT NODE 353 INSTANCE 
             PART-1-1 BOUNDARY CONDITION TYPE YASYMM MAY NOT BE APPLIED AT THIS 
             NODE

 ***WARNING: DEGREE OF FREEDOM 3 HAS BEEN ELIMINATED AT NODE 353 INSTANCE 
             PART-1-1 BOUNDARY CONDITION TYPE YASYMM MAY NOT BE APPLIED AT THIS 
             NODE

 ***WARNING: DEGREE OF FREEDOM 1 HAS BEEN ELIMINATED AT NODE 383 INSTANCE 
             PART-1-1 BOUNDARY CONDITION TYPE YASYMM MAY NOT BE APPLIED AT THIS 
             NODE

 ***WARNING: DEGREE OF FREEDOM 3 HAS BEEN ELIMINATED AT NODE 383 INSTANCE 
             PART-1-1 BOUNDARY CONDITION TYPE YASYMM MAY NOT BE APPLIED AT THIS 
             NODE

 ***WARNING: DEGREE OF FREEDOM 1 HAS BEEN ELIMINATED AT NODE 384 INSTANCE 
             PART-1-1 BOUNDARY CONDITION TYPE YASYMM MAY NOT BE APPLIED AT THIS 
             NODE

 ***WARNING: DEGREE OF FREEDOM 3 HAS BEEN ELIMINATED AT NODE 384 INSTANCE 
             PART-1-1 BOUNDARY CONDITION TYPE YASYMM MAY NOT BE APPLIED AT THIS 
             NODE

 ***WARNING: DEGREE OF FREEDOM 1 HAS BEEN ELIMINATED AT NODE 385 INSTANCE 
             PART-1-1 BOUNDARY CONDITION TYPE YASYMM MAY NOT BE APPLIED AT THIS 
             NODE

 ***WARNING: DEGREE OF FREEDOM 3 HAS BEEN ELIMINATED AT NODE 385 INSTANCE 
             PART-1-1 BOUNDARY CONDITION TYPE YASYMM MAY NOT BE APPLIED AT THIS 
             NODE

 ***WARNING: DEGREE OF FREEDOM 1 HAS BEEN ELIMINATED AT NODE 386 INSTANCE 
             PART-1-1 BOUNDARY CONDITION TYPE YASYMM MAY NOT BE APPLIED AT THIS 
             NODE

 ***WARNING: DEGREE OF FREEDOM 3 HAS BEEN ELIMINATED AT NODE 386 INSTANCE 
             PART-1-1 BOUNDARY CONDITION TYPE YASYMM MAY NOT BE APPLIED AT THIS 
             NODE

 ***WARNING: DEGREE OF FREEDOM 1 HAS BEEN ELIMINATED AT NODE 387 INSTANCE 
             PART-1-1 BOUNDARY CONDITION TYPE YASYMM MAY NOT BE APPLIED AT THIS 
             NODE

 ***WARNING: DEGREE OF FREEDOM 3 HAS BEEN ELIMINATED AT NODE 387 INSTANCE 
             PART-1-1 BOUNDARY CONDITION TYPE YASYMM MAY NOT BE APPLIED AT THIS 
             NODE

 ***WARNING: DEGREE OF FREEDOM 1 HAS BEEN ELIMINATED AT NODE 388 INSTANCE 
             PART-1-1 BOUNDARY CONDITION TYPE YASYMM MAY NOT BE APPLIED AT THIS 
             NODE

 ***WARNING: DEGREE OF FREEDOM 3 HAS BEEN ELIMINATED AT NODE 388 INSTANCE 
             PART-1-1 BOUNDARY CONDITION TYPE YASYMM MAY NOT BE APPLIED AT THIS 
             NODE

 ***WARNING: DEGREE OF FREEDOM 1 HAS BEEN ELIMINATED AT NODE 389 INSTANCE 
             PART-1-1 BOUNDARY CONDITION TYPE YASYMM MAY NOT BE APPLIED AT THIS 
             NODE

 ***WARNING: DEGREE OF FREEDOM 3 HAS BEEN ELIMINATED AT NODE 389 INSTANCE 
             PART-1-1 BOUNDARY CONDITION TYPE YASYMM MAY NOT BE APPLIED AT THIS 
             NODE

 ***WARNING: DEGREE OF FREEDOM 1 HAS BEEN ELIMINATED AT NODE 390 INSTANCE 
             PART-1-1 BOUNDARY CONDITION TYPE YASYMM MAY NOT BE APPLIED AT THIS 
             NODE

 ***WARNING: DEGREE OF FREEDOM 3 HAS BEEN ELIMINATED AT NODE 390 INSTANCE 
             PART-1-1 BOUNDARY CONDITION TYPE YASYMM MAY NOT BE APPLIED AT THIS 
             NODE

 ***WARNING: DEGREE OF FREEDOM 1 HAS BEEN ELIMINATED AT NODE 391 INSTANCE 
             PART-1-1 BOUNDARY CONDITION TYPE YASYMM MAY NOT BE APPLIED AT THIS 
             NODE

 ***WARNING: DEGREE OF FREEDOM 3 HAS BEEN ELIMINATED AT NODE 391 INSTANCE 
             PART-1-1 BOUNDARY CONDITION TYPE YASYMM MAY NOT BE APPLIED AT THIS 
             NODE

 ***WARNING: DEGREE OF FREEDOM 1 HAS BEEN ELIMINATED AT NODE 407 INSTANCE 
             PART-1-1 BOUNDARY CONDITION TYPE YASYMM MAY NOT BE APPLIED AT THIS 
             NODE

 ***WARNING: DEGREE OF FREEDOM 3 HAS BEEN ELIMINATED AT NODE 407 INSTANCE 
             PART-1-1 BOUNDARY CONDITION TYPE YASYMM MAY NOT BE APPLIED AT THIS 
             NODE

 ***WARNING: DEGREE OF FREEDOM 1 HAS BEEN ELIMINATED AT NODE 408 INSTANCE 
             PART-1-1 BOUNDARY CONDITION TYPE YASYMM MAY NOT BE APPLIED AT THIS 
             NODE

 ***WARNING: DEGREE OF FREEDOM 3 HAS BEEN ELIMINATED AT NODE 408 INSTANCE 
             PART-1-1 BOUNDARY CONDITION TYPE YASYMM MAY NOT BE APPLIED AT THIS 
             NODE

 ***WARNING: DEGREE OF FREEDOM 1 HAS BEEN ELIMINATED AT NODE 409 INSTANCE 
             PART-1-1 BOUNDARY CONDITION TYPE YASYMM MAY NOT BE APPLIED AT THIS 
             NODE

 ***WARNING: DEGREE OF FREEDOM 3 HAS BEEN ELIMINATED AT NODE 409 INSTANCE 
             PART-1-1 BOUNDARY CONDITION TYPE YASYMM MAY NOT BE APPLIED AT THIS 
             NODE

 ***WARNING: DEGREE OF FREEDOM 1 HAS BEEN ELIMINATED AT NODE 410 INSTANCE 
             PART-1-1 BOUNDARY CONDITION TYPE YASYMM MAY NOT BE APPLIED AT THIS 
             NODE

 ***WARNING: DEGREE OF FREEDOM 3 HAS BEEN ELIMINATED AT NODE 410 INSTANCE 
             PART-1-1 BOUNDARY CONDITION TYPE YASYMM MAY NOT BE APPLIED AT THIS 
             NODE

 ***WARNING: DEGREE OF FREEDOM 1 HAS BEEN ELIMINATED AT NODE 411 INSTANCE 
             PART-1-1 BOUNDARY CONDITION TYPE YASYMM MAY NOT BE APPLIED AT THIS 
             NODE

 ***WARNING: DEGREE OF FREEDOM 3 HAS BEEN ELIMINATED AT NODE 411 INSTANCE 
             PART-1-1 BOUNDARY CONDITION TYPE YASYMM MAY NOT BE APPLIED AT THIS 
             NODE

 ***WARNING: DEGREE OF FREEDOM 1 HAS BEEN ELIMINATED AT NODE 412 INSTANCE 
             PART-1-1 BOUNDARY CONDITION TYPE YASYMM MAY NOT BE APPLIED AT THIS 
             NODE

 ***WARNING: DEGREE OF FREEDOM 3 HAS BEEN ELIMINATED AT NODE 412 INSTANCE 
             PART-1-1 BOUNDARY CONDITION TYPE YASYMM MAY NOT BE APPLIED AT THIS 
             NODE

 ***WARNING: DEGREE OF FREEDOM 1 HAS BEEN ELIMINATED AT NODE 437 INSTANCE 
             PART-1-1 BOUNDARY CONDITION TYPE YASYMM MAY NOT BE APPLIED AT THIS 
             NODE

 ***WARNING: DEGREE OF FREEDOM 3 HAS BEEN ELIMINATED AT NODE 437 INSTANCE 
             PART-1-1 BOUNDARY CONDITION TYPE YASYMM MAY NOT BE APPLIED AT THIS 
             NODE

 ***WARNING: DEGREE OF FREEDOM 1 HAS BEEN ELIMINATED AT NODE 438 INSTANCE 
             PART-1-1 BOUNDARY CONDITION TYPE YASYMM MAY NOT BE APPLIED AT THIS 
             NODE

 ***WARNING: DEGREE OF FREEDOM 3 HAS BEEN ELIMINATED AT NODE 438 INSTANCE 
             PART-1-1 BOUNDARY CONDITION TYPE YASYMM MAY NOT BE APPLIED AT THIS 
             NODE

 ***WARNING: DEGREE OF FREEDOM 1 HAS BEEN ELIMINATED AT NODE 439 INSTANCE 
             PART-1-1 BOUNDARY CONDITION TYPE YASYMM MAY NOT BE APPLIED AT THIS 
             NODE

 ***WARNING: DEGREE OF FREEDOM 3 HAS BEEN ELIMINATED AT NODE 439 INSTANCE 
             PART-1-1 BOUNDARY CONDITION TYPE YASYMM MAY NOT BE APPLIED AT THIS 
             NODE

 ***WARNING: DEGREE OF FREEDOM 1 HAS BEEN ELIMINATED AT NODE 440 INSTANCE 
             PART-1-1 BOUNDARY CONDITION TYPE YASYMM MAY NOT BE APPLIED AT THIS 
             NODE

 ***WARNING: DEGREE OF FREEDOM 3 HAS BEEN ELIMINATED AT NODE 440 INSTANCE 
             PART-1-1 BOUNDARY CONDITION TYPE YASYMM MAY NOT BE APPLIED AT THIS 
             NODE

 ***WARNING: DEGREE OF FREEDOM 1 HAS BEEN ELIMINATED AT NODE 441 INSTANCE 
             PART-1-1 BOUNDARY CONDITION TYPE YASYMM MAY NOT BE APPLIED AT THIS 
             NODE

 ***WARNING: DEGREE OF FREEDOM 3 HAS BEEN ELIMINATED AT NODE 441 INSTANCE 
             PART-1-1 BOUNDARY CONDITION TYPE YASYMM MAY NOT BE APPLIED AT THIS 
             NODE

 ***WARNING: DEGREE OF FREEDOM 1 HAS BEEN ELIMINATED AT NODE 442 INSTANCE 
             PART-1-1 BOUNDARY CONDITION TYPE YASYMM MAY NOT BE APPLIED AT THIS 
             NODE

 ***WARNING: DEGREE OF FREEDOM 3 HAS BEEN ELIMINATED AT NODE 442 INSTANCE 
             PART-1-1 BOUNDARY CONDITION TYPE YASYMM MAY NOT BE APPLIED AT THIS 
             NODE

 ***WARNING: 108 nodes have dof on which incorrect boundary conditions may have 
             been specified. The nodes have been identified in node set 
             WarnNodeBCIncorrectDof.



                            P R O B L E M   S I Z E


          NUMBER OF ELEMENTS IS                                  9145
          NUMBER OF ELEMENTS DEFINED BY THE USER AND *TIE        6425
          NUMBER OF INTERNAL ELEMENTS GENERATED FOR CONTACT      2720
          NUMBER OF NODES IS                                    13740
          NUMBER OF NODES DEFINED BY THE USER                    8300
          NUMBER OF INTERNAL NODES GENERATED BY THE PROGRAM      5440
          TOTAL NUMBER OF VARIABLES IN THE MODEL                33060
          (DEGREES OF FREEDOM PLUS MAX NO. OF ANY LAGRANGE MULTIPLIER
           VARIABLES. INCLUDE *PRINT,SOLVE=YES TO GET THE ACTUAL NUMBER.)



                              END OF USER INPUT PROCESSING



     JOB TIME SUMMARY
       USER TIME (SEC)      =   2.6000    
       SYSTEM TIME (SEC)    =  0.40000    
       TOTAL CPU TIME (SEC) =   3.0000    
       WALLCLOCK TIME (SEC) =          4
1

   Abaqus 3DEXPERIENCE R2018x                                  Date 18-Nov-2024   Time 22:39:31
   For use by INDIAN INSTITUTE OF TECHNOLOGY under license from Dassault Systemes or its subsidiary.

                                                                                               STEP    1  INCREMENT    1
                                                                                          TIME COMPLETED IN THIS STEP   0.00    


                        S T E P       1     S T A T I C   A N A L Y S I S


                                                                                          

     AUTOMATIC TIME CONTROL WITH -
          A SUGGESTED INITIAL TIME INCREMENT OF                1.000E-02
          AND A TOTAL TIME PERIOD OF                            1.00    
          THE MINIMUM TIME INCREMENT ALLOWED IS                1.000E-05
          THE MAXIMUM TIME INCREMENT ALLOWED IS                 1.00    

     LINEAR EQUATION SOLVER TYPE         DIRECT SPARSE

          LARGE DISPLACEMENT THEORY WILL BE USED

          UNSYMMETRIC MATRIX STORAGE AND SOLUTION WILL BE USED
  
                   M E M O R Y   E S T I M A T E
  
 PROCESS      FLOATING PT       MINIMUM MEMORY        MEMORY TO
              OPERATIONS           REQUIRED          MINIMIZE I/O
             PER ITERATION           (MB)               (MB)
  
     1          1.87E+10               45                329
  
 NOTE:
      (1) SINCE ABAQUS DOES NOT PRE-ALLOCATE MEMORY AND ONLY ALLOCATES MEMORY AS NEEDED DURING THE ANALYSIS,
          THE MEMORY REQUIREMENT PRINTED HERE CAN ONLY BE VIEWED AS A GENERAL GUIDELINE BASED ON THE BEST
          KNOWLEDGE AVAILABLE AT THE BEGINNING OF A STEP BEFORE THE SOLUTION PROCESS HAS BEGUN.
      (2) THE ESTIMATE IS NORMALLY UPDATED AT THE BEGINNING OF EVERY STEP. IT IS THE MAXIMUM VALUE OF THE
          ESTIMATE FROM THE CURRENT STEP TO THE LAST STEP OF THE ANALYSIS, WITH UNSYMMETRIC SOLUTION TAKEN
          INTO ACCOUNT IF APPLICABLE. 
      (3) SINCE THE ESTIMATE IS BASED ON THE ACTIVE DEGREES OF FREEDOM IN THE FIRST ITERATION OF THE 
          CURRENT STEP, THE MEMORY ESTIMATE MIGHT BE SIGNIFICANTLY DIFFERENT THAN ACTUAL USAGE FOR 
          PROBLEMS WITH SUBSTANTIAL CHANGES IN ACTIVE DEGREES OF FREEDOM BETWEEN STEPS (OR EVEN WITHIN
          THE SAME STEP). EXAMPLES ARE: PROBLEMS WITH SIGNIFICANT CONTACT CHANGES, PROBLEMS WITH MODEL
          CHANGE, PROBLEMS WITH BOTH STATIC STEP AND STEADY STATE DYNAMIC PROCEDURES WHERE ACOUSTIC 
          ELEMENTS WILL ONLY BE ACTIVATED IN THE STEADY STATE DYNAMIC STEPS.
      (4) FOR MULTI-PROCESS EXECUTION, THE ESTIMATED VALUE OF FLOATING POINT OPERATIONS FOR EACH PROCESS
          IS BASED ON AN INITIAL SCHEDULING OF OPERATIONS AND MIGHT NOT REFLECT THE ACTUAL FLOATING 
          POINT OPERATIONS COMPLETED ON EACH PROCESS. OPERATIONS ARE DYNAMICALLY BALANCED DURING EXECUTION, 
          SO THE ACTUAL BALANCE OF OPERATIONS BETWEEN PROCESSES IS EXPECTED TO BE BETTER THAN THE ESTIMATE
          PRINTED HERE.
      (5) THE UPPER LIMIT OF MEMORY THAT CAN BE ALLOCATED BY ABAQUS WILL IN GENERAL DEPEND ON THE VALUE OF
          THE "MEMORY" PARAMETER AND THE AMOUNT OF PHYSICAL MEMORY AVAILABLE ON THE MACHINE. PLEASE SEE
          THE "ABAQUS ANALYSIS USER'S MANUAL" FOR MORE DETAILS. THE ACTUAL USAGE OF MEMORY AND OF DISK
          SPACE FOR SCRATCH DATA WILL DEPEND ON THIS UPPER LIMIT AS WELL AS THE MEMORY REQUIRED TO MINIMIZE
          I/O. IF THE MEMORY UPPER LIMIT IS GREATER THAN THE MEMORY REQUIRED TO MINIMIZE I/O, THEN THE ACTUAL
          MEMORY USAGE WILL BE CLOSE TO THE ESTIMATED "MEMORY TO MINIMIZE I/O" VALUE, AND THE SCRATCH DISK
          USAGE WILL BE CLOSE-TO-ZERO; OTHERWISE, THE ACTUAL MEMORY USED WILL BE CLOSE TO THE PREVIOUSLY
          MENTIONED MEMORY LIMIT, AND THE SCRATCH DISK USAGE WILL BE ROUGHLY PROPORTIONAL TO THE DIFFERENCE
          BETWEEN THE ESTIMATED "MEMORY TO MINIMIZE I/O" AND THE MEMORY UPPER LIMIT. HOWEVER ACCURATE
          ESTIMATE OF THE SCRATCH DISK SPACE IS NOT POSSIBLE.
      (6) USING "*RESTART, WRITE" CAN GENERATE A LARGE AMOUNT OF DATA WRITTEN IN THE WORK DIRECTORY.


          THE ANALYSIS IS ENDED BECAUSE OF THE PROBLEMS ENCOUNTERED
          LOOK AT THE MSG FILE FOR THE CAUSE OF THE TERMINATION



                              ANALYSIS IS ENDED
                              WITH      1 ERROR MESSAGES ON THE MSG FILE
                              AND     412 WARNING MESSAGES ON THE DAT FILE



     JOB TIME SUMMARY
       USER TIME (SEC)      =   2111.6    
       SYSTEM TIME (SEC)    =   16.000    
       TOTAL CPU TIME (SEC) =   2127.6    
       WALLCLOCK TIME (SEC) =       2180
