1

   Abaqus 3DEXPERIENCE R2018x                                  Date 18-Nov-2024   Time 22:39:31
   For use by INDIAN INSTITUTE OF TECHNOLOGY under license from Dassault Systemes or its subsidiary.

                                                                                 
                                                                                 
 STEP    1     INCREMENT     1     STEP TIME    0.00    


                        S T E P       1     S T A T I C   A N A L Y S I S


                                                                                          

     AUTOMATIC TIME CONTROL WITH -
          A SUGGESTED INITIAL TIME INCREMENT OF                1.000E-02
          AND A TOTAL TIME PERIOD OF                            1.00    
          THE MINIMUM TIME INCREMENT ALLOWED IS                1.000E-05
          THE MAXIMUM TIME INCREMENT ALLOWED IS                 1.00    

     LINEAR EQUATION SOLVER TYPE         DIRECT SPARSE

 CONVERGENCE TOLERANCE PARAMETERS FOR FORCE    
     CRITERION FOR RESIDUAL FORCE     FOR A NONLINEAR PROBLEM          5.000E-03
     CRITERION FOR DISP.    CORRECTION IN A NONLINEAR PROBLEM          1.000E-02
     INITIAL VALUE OF TIME AVERAGE FORCE                               1.000E-02
     AVERAGE FORCE     IS TIME AVERAGE FORCE    
     ALTERNATE CRIT. FOR RESIDUAL FORCE     FOR A NONLINEAR PROBLEM    2.000E-02
     CRITERION FOR ZERO FORCE     RELATIVE TO TIME AVRG. FORCE         1.000E-05
     CRITERION FOR RESIDUAL FORCE     WHEN THERE IS ZERO FLUX          1.000E-05
     CRITERION FOR DISP.    CORRECTION WHEN THERE IS ZERO FLUX         1.000E-03
     CRITERION FOR RESIDUAL FORCE     FOR A LINEAR INCREMENT           1.000E-08
     FIELD CONVERSION RATIO                                             1.00    
     CRITERION FOR ZERO FORCE     REL. TO TIME AVRG. MAX. FORCE        1.000E-05
     CRITERION FOR ZERO DISP.    RELATIVE TO CHARACTERISTIC LENGTH     1.000E-08

     VOLUMETRIC STRAIN COMPATIBILITY TOLERANCE FOR HYBRID SOLIDS       1.000E-05
     AXIAL STRAIN COMPATIBILITY TOLERANCE FOR HYBRID BEAMS             1.000E-05
     TRANS. SHEAR STRAIN COMPATIBILITY TOLERANCE FOR HYBRID BEAMS      1.000E-05
     SOFT CONTACT CONSTRAINT COMPATIBILITY TOLERANCE FOR P>P0          5.000E-03
     SOFT CONTACT CONSTRAINT COMPATIBILITY TOLERANCE FOR P=0.0         0.100    
     CONTACT FORCE ERROR TOLERANCE FOR CONVERT SDI=YES                 1.00    
     DISPLACEMENT COMPATIBILITY TOLERANCE FOR DCOUP ELEMENTS           1.000E-05
     ROTATION COMPATIBILITY TOLERANCE FOR DCOUP ELEMENTS               1.000E-05

 EQUILIBRIUM WILL BE CHECKED FOR SEVERE DISCONTINUITY ITERATIONS

 TIME INCREMENTATION CONTROL PARAMETERS:
     FIRST EQUILIBRIUM ITERATION FOR CONSECUTIVE DIVERGENCE CHECK              4
     EQUILIBRIUM ITERATION AT WHICH LOG. CONVERGENCE RATE CHECK BEGINS         8
     EQUILIBRIUM ITERATION AFTER WHICH ALTERNATE RESIDUAL IS USED              9
     MAXIMUM EQUILIBRIUM ITERATIONS ALLOWED                                   16
     EQUILIBRIUM ITERATION COUNT FOR CUT-BACK IN NEXT INCREMENT               10
     MAXIMUM EQUILIB. ITERS IN TWO INCREMENTS FOR TIME INCREMENT INCREASE      4
     MAXIMUM ITERATIONS FOR SEVERE DISCONTINUITIES                            50
     MAXIMUM ATTEMPTS ALLOWED IN AN INCREMENT                                  5
     MAXIMUM DISCON. ITERS IN TWO INCREMENTS FOR TIME INCREMENT INCREASE      50
     MAXIMUM CONTACT AUGMENTATIONS FOR *SURFACE BEHAVIOR,AUGMENTED LAGRANGE   50
     CUT-BACK FACTOR AFTER DIVERGENCE                                 0.2500    
     CUT-BACK FACTOR FOR TOO SLOW CONVERGENCE                         0.5000    
     CUT-BACK FACTOR AFTER TOO MANY EQUILIBRIUM ITERATIONS            0.7500    
     CUT-BACK FACTOR AFTER TOO MANY SEVERE DISCONTINUITY ITERATIONS   0.2500    
     CUT-BACK FACTOR AFTER PROBLEMS IN ELEMENT ASSEMBLY               0.2500    
     INCREASE FACTOR AFTER TWO INCREMENTS THAT CONVERGE QUICKLY        1.500    
     MAX. TIME INCREMENT INCREASE FACTOR ALLOWED                       1.500    
     MAX. TIME INCREMENT INCREASE FACTOR ALLOWED (DYNAMICS)            1.250    
     MAX. TIME INCREMENT INCREASE FACTOR ALLOWED (DIFFUSION)           2.000    
     MINIMUM TIME INCREMENT RATIO FOR EXTRAPOLATION TO OCCUR          0.1000    
     MAX. RATIO OF TIME INCREMENT TO STABILITY LIMIT                   1.000    
     FRACTION OF STABILITY LIMIT FOR NEW TIME INCREMENT               0.9500    
     TIME INCREMENT INCREASE FACTOR BEFORE A TIME POINT                1.000    

 CONTACT CONTROLS APPLIED TO ALL CONTACT PAIRS:
     GLOBAL STABILIZATION CONTROL IS NOT USED
     RELATIVE PENETRATION TOLERANCE FOR AUGMENTED LAGRANGE CONTACT:
          FINITE-SLIDING SURFACE-TO-SURFACE                            5.000E-02
          OTHERWISE                                                    1.000E-03

          PRINT OF INCREMENT NUMBER, TIME, ETC., EVERY    1  INCREMENTS

     THE MAXIMUM NUMBER OF INCREMENTS IN THIS STEP IS                     100

          LARGE DISPLACEMENT THEORY WILL BE USED

          UNSYMMETRIC MATRIX STORAGE AND SOLUTION WILL BE USED

     LINEAR EXTRAPOLATION WILL BE USED

     CHARACTERISTIC ELEMENT LENGTH     0.333    

     DETAILS REGARDING ACTUAL SOLUTION WAVEFRONT REQUESTED

     DETAILED OUTPUT OF DIAGNOSTICS TO DATABASE REQUESTED

     PRINT OF INCREMENT NUMBER, TIME, ETC., TO THE MESSAGE FILE EVERY     1  INCREMENTS

     COLLECTING MODEL CONSTRAINT INFORMATION FOR OVERCONSTRAINT CHECKS

     COLLECTING STEP CONSTRAINT INFORMATION FOR OVERCONSTRAINT CHECKS


  INCREMENT     1 STARTS. ATTEMPT NUMBER  1, TIME INCREMENT  1.000E-02

  NUMBER OF EQUATIONS =     22656     NUMBER OF RHS =    1
  NUMBER OF FLOATING PT. OPERATIONS =  1.87E+10

     CHECK POINT   START OF SOLVER    

     CHECK POINT  END OF SOLVER       

       ELAPSED USER TIME (SEC)      =   7.3000    
       ELAPSED SYSTEM TIME (SEC)    =  0.10000    
       ELAPSED TOTAL CPU TIME (SEC) =   7.4000    
       ELAPSED WALLCLOCK TIME (SEC) =          7

                  284 SEVERE DISCONTINUITIES OCCURRED DURING THIS ITERATION.
                  284 POINTS CHANGED FROM CLOSED TO OPEN

               CONVERGENCE CHECKS FOR SEVERE DISCONTINUITY ITERATION     1

   MAX. PENETRATION ERROR -494.219E-18   AT NODE PART-1-1.927 OF CONTACT PAIR 
   (ASSEMBLY_S_SURF-23,ASSEMBLY_M_SURF-23)
   MAX. CONTACT FORCE ERROR -594.228E-03   AT NODE PART-1-1.745 OF CONTACT PAIR 
   (ASSEMBLY_S_SURF-23,ASSEMBLY_M_SURF-23)
          THE CONTACT CONSTRAINT ERRORS ARE WITHIN THE TOLERANCES.

 AVERAGE FORCE                       3.08       TIME AVG. FORCE        3.08    
 LARGEST RESIDUAL FORCE             2.328E-02   AT NODE        515   DOF  2
   INSTANCE: PART-2-1                                                                        
 LARGEST INCREMENT OF DISP.        -4.515E-07   AT NODE       1071   DOF  2
   INSTANCE: PART-2-1                                                                        
 LARGEST CORRECTION TO DISP.       -4.515E-07   AT NODE       1071   DOF  2
   INSTANCE: PART-2-1                                                                        
          FORCE     EQUILIBRIUM NOT ACHIEVED WITHIN TOLERANCE.

  NUMBER OF EQUATIONS =     22656     NUMBER OF RHS =    1
  NUMBER OF FLOATING PT. OPERATIONS =  1.87E+10

     CHECK POINT   START OF SOLVER    

     CHECK POINT  END OF SOLVER       

       ELAPSED USER TIME (SEC)      =   7.2000    
       ELAPSED SYSTEM TIME (SEC)    =   0.0000    
       ELAPSED TOTAL CPU TIME (SEC) =   7.2000    
       ELAPSED WALLCLOCK TIME (SEC) =          7

               CONVERGENCE CHECKS FOR EQUILIBRIUM ITERATION     1

   MAX. PENETRATION ERROR 967.829E-18   AT NODE PART-1-1.1332 OF CONTACT PAIR 
   (ASSEMBLY_S_SURF-23,ASSEMBLY_M_SURF-23)
   MAX. CONTACT FORCE ERROR 31.9551E-09  AT NODE PART-1-1.1323 OF CONTACT PAIR 
   (ASSEMBLY_S_SURF-23,ASSEMBLY_M_SURF-23)
          THE CONTACT CONSTRAINTS HAVE CONVERGED.

 AVERAGE FORCE                       3.08       TIME AVG. FORCE        3.08    
 LARGEST RESIDUAL FORCE            -2.322E-07   AT NODE       1308   DOF  1
   INSTANCE: PART-2-1                                                                        
 LARGEST INCREMENT OF DISP.        -4.515E-07   AT NODE       1072   DOF  2
   INSTANCE: PART-2-1                                                                        
 LARGEST CORRECTION TO DISP.        3.144E-11   AT NODE       1691   DOF  2
   INSTANCE: PART-2-1                                                                        
          THE FORCE     EQUILIBRIUM EQUATIONS HAVE CONVERGED

 ITERATION SUMMARY FOR THE INCREMENT:   2 TOTAL ITERATIONS, OF WHICH
   1 ARE SEVERE DISCONTINUITY ITERATIONS AND  1 ARE EQUILIBRIUM ITERATIONS.

 TIME INCREMENT COMPLETED  1.000E-02,  FRACTION OF STEP COMPLETED  1.000E-02
 STEP TIME COMPLETED       1.000E-02,  TOTAL TIME COMPLETED        1.000E-02


  INCREMENT     2 STARTS. ATTEMPT NUMBER  1, TIME INCREMENT  1.000E-02

  NUMBER OF EQUATIONS =     22656     NUMBER OF RHS =    1
  NUMBER OF FLOATING PT. OPERATIONS =  1.87E+10

     CHECK POINT   START OF SOLVER    

     CHECK POINT  END OF SOLVER       

       ELAPSED USER TIME (SEC)      =   7.2000    
       ELAPSED SYSTEM TIME (SEC)    =  0.10000    
       ELAPSED TOTAL CPU TIME (SEC) =   7.3000    
       ELAPSED WALLCLOCK TIME (SEC) =          8

               CONVERGENCE CHECKS FOR EQUILIBRIUM ITERATION     1

   MAX. PENETRATION ERROR -1.56520E-15 AT NODE PART-1-1.1051 OF CONTACT PAIR 
   (ASSEMBLY_S_SURF-23,ASSEMBLY_M_SURF-23)
   MAX. CONTACT FORCE ERROR -55.3354E-09  AT NODE PART-1-1.1051 OF CONTACT PAIR 
   (ASSEMBLY_S_SURF-23,ASSEMBLY_M_SURF-23)
          THE CONTACT CONSTRAINTS HAVE CONVERGED.

 AVERAGE FORCE                       7.66       TIME AVG. FORCE        5.37    
 LARGEST RESIDUAL FORCE             3.535E-07   AT NODE       2133   DOF  1
   INSTANCE: PART-2-1                                                                        
 LARGEST INCREMENT OF DISP.        -4.515E-07   AT NODE       1072   DOF  2
   INSTANCE: PART-2-1                                                                        
 LARGEST CORRECTION TO DISP.        1.701E-13   AT NODE       1072   DOF  2
   INSTANCE: PART-2-1                                                                        
          THE FORCE     EQUILIBRIUM EQUATIONS HAVE CONVERGED
          TIME INCREMENT MAY NOW INCREASE TO    1.500E-02

 ITERATION SUMMARY FOR THE INCREMENT:   1 TOTAL ITERATIONS, OF WHICH
   0 ARE SEVERE DISCONTINUITY ITERATIONS AND  1 ARE EQUILIBRIUM ITERATIONS.

 TIME INCREMENT COMPLETED  1.000E-02,  FRACTION OF STEP COMPLETED  2.000E-02
 STEP TIME COMPLETED       2.000E-02,  TOTAL TIME COMPLETED        2.000E-02


  INCREMENT     3 STARTS. ATTEMPT NUMBER  1, TIME INCREMENT  1.500E-02

  NUMBER OF EQUATIONS =     22656     NUMBER OF RHS =    1
  NUMBER OF FLOATING PT. OPERATIONS =  1.87E+10

     CHECK POINT   START OF SOLVER    

     CHECK POINT  END OF SOLVER       

       ELAPSED USER TIME (SEC)      =   7.4000    
       ELAPSED SYSTEM TIME (SEC)    =   0.0000    
       ELAPSED TOTAL CPU TIME (SEC) =   7.4000    
       ELAPSED WALLCLOCK TIME (SEC) =          8

               CONVERGENCE CHECKS FOR EQUILIBRIUM ITERATION     1

   MAX. PENETRATION ERROR 2.35237E-15 AT NODE PART-1-1.1595 OF CONTACT PAIR 
   (ASSEMBLY_S_SURF-23,ASSEMBLY_M_SURF-23)
   MAX. CONTACT FORCE ERROR 83.1645E-09  AT NODE PART-1-1.1595 OF CONTACT PAIR 
   (ASSEMBLY_S_SURF-23,ASSEMBLY_M_SURF-23)
          THE CONTACT CONSTRAINTS HAVE CONVERGED.

 AVERAGE FORCE                       13.4       TIME AVG. FORCE        8.03    
 LARGEST RESIDUAL FORCE             4.543E-07   AT NODE       2339   DOF  1
   INSTANCE: PART-1-1                                                                        
 LARGEST INCREMENT OF DISP.        -6.773E-07   AT NODE       1072   DOF  2
   INSTANCE: PART-2-1                                                                        
 LARGEST CORRECTION TO DISP.        3.096E-13   AT NODE       1071   DOF  2
   INSTANCE: PART-2-1                                                                        
          THE FORCE     EQUILIBRIUM EQUATIONS HAVE CONVERGED
          TIME INCREMENT MAY NOW INCREASE TO    2.250E-02

 ITERATION SUMMARY FOR THE INCREMENT:   1 TOTAL ITERATIONS, OF WHICH
   0 ARE SEVERE DISCONTINUITY ITERATIONS AND  1 ARE EQUILIBRIUM ITERATIONS.

 TIME INCREMENT COMPLETED  1.500E-02,  FRACTION OF STEP COMPLETED  3.500E-02
 STEP TIME COMPLETED       3.500E-02,  TOTAL TIME COMPLETED        3.500E-02


  INCREMENT     4 STARTS. ATTEMPT NUMBER  1, TIME INCREMENT  2.250E-02

  NUMBER OF EQUATIONS =     22656     NUMBER OF RHS =    1
  NUMBER OF FLOATING PT. OPERATIONS =  1.87E+10

     CHECK POINT   START OF SOLVER    

     CHECK POINT  END OF SOLVER       

       ELAPSED USER TIME (SEC)      =   7.3000    
       ELAPSED SYSTEM TIME (SEC)    =  0.10000    
       ELAPSED TOTAL CPU TIME (SEC) =   7.4000    
       ELAPSED WALLCLOCK TIME (SEC) =          8

               CONVERGENCE CHECKS FOR EQUILIBRIUM ITERATION     1

   MAX. PENETRATION ERROR 2.23163E-15 AT NODE PART-1-1.1291 OF CONTACT PAIR 
   (ASSEMBLY_S_SURF-23,ASSEMBLY_M_SURF-23)
   MAX. CONTACT FORCE ERROR 67.6253E-09  AT NODE PART-1-1.1291 OF CONTACT PAIR 
   (ASSEMBLY_S_SURF-23,ASSEMBLY_M_SURF-23)
          THE CONTACT CONSTRAINTS HAVE CONVERGED.

 AVERAGE FORCE                       21.9       TIME AVG. FORCE        11.5    
 LARGEST RESIDUAL FORCE             -5.67       AT NODE       3141   DOF  1
   INSTANCE: PART-2-1                                                                        
 LARGEST INCREMENT OF DISP.        -1.114E-06   AT NODE       1072   DOF  2
   INSTANCE: PART-2-1                                                                        
 LARGEST CORRECTION TO DISP.       -9.946E-08   AT NODE       3173   DOF  2
   INSTANCE: PART-2-1                                                                        
          FORCE     EQUILIBRIUM NOT ACHIEVED WITHIN TOLERANCE.

  NUMBER OF EQUATIONS =     22656     NUMBER OF RHS =    1
  NUMBER OF FLOATING PT. OPERATIONS =  1.87E+10

     CHECK POINT   START OF SOLVER    

     CHECK POINT  END OF SOLVER       

       ELAPSED USER TIME (SEC)      =   7.4000    
       ELAPSED SYSTEM TIME (SEC)    =   0.0000    
       ELAPSED TOTAL CPU TIME (SEC) =   7.4000    
       ELAPSED WALLCLOCK TIME (SEC) =          8

               CONVERGENCE CHECKS FOR EQUILIBRIUM ITERATION     2

   MAX. PENETRATION ERROR -982.191E-18   AT NODE PART-1-1.546 OF CONTACT PAIR 
   (ASSEMBLY_S_SURF-23,ASSEMBLY_M_SURF-23)
   MAX. CONTACT FORCE ERROR 34.0406E-09  AT NODE PART-1-1.1064 OF CONTACT PAIR 
   (ASSEMBLY_S_SURF-23,ASSEMBLY_M_SURF-23)
          THE CONTACT CONSTRAINTS HAVE CONVERGED.

 AVERAGE FORCE                       21.9       TIME AVG. FORCE        11.5    
 LARGEST RESIDUAL FORCE            -4.074E-02   AT NODE       3180   DOF  2
   INSTANCE: PART-2-1                                                                        
 LARGEST INCREMENT OF DISP.        -1.115E-06   AT NODE       1072   DOF  2
   INSTANCE: PART-2-1                                                                        
 LARGEST CORRECTION TO DISP.       -2.381E-09   AT NODE       1071   DOF  1
   INSTANCE: PART-2-1                                                                        
          THE FORCE     EQUILIBRIUM EQUATIONS HAVE CONVERGED
          TIME INCREMENT MAY NOW INCREASE TO    3.375E-02

 ITERATION SUMMARY FOR THE INCREMENT:   2 TOTAL ITERATIONS, OF WHICH
   0 ARE SEVERE DISCONTINUITY ITERATIONS AND  2 ARE EQUILIBRIUM ITERATIONS.

 TIME INCREMENT COMPLETED  2.250E-02,  FRACTION OF STEP COMPLETED  5.750E-02
 STEP TIME COMPLETED       5.750E-02,  TOTAL TIME COMPLETED        5.750E-02


  INCREMENT     5 STARTS. ATTEMPT NUMBER  1, TIME INCREMENT  3.375E-02

  NUMBER OF EQUATIONS =     22656     NUMBER OF RHS =    1
  NUMBER OF FLOATING PT. OPERATIONS =  1.87E+10

     CHECK POINT   START OF SOLVER    

     CHECK POINT  END OF SOLVER       

       ELAPSED USER TIME (SEC)      =   7.4000    
       ELAPSED SYSTEM TIME (SEC)    =  0.10000    
       ELAPSED TOTAL CPU TIME (SEC) =   7.5000    
       ELAPSED WALLCLOCK TIME (SEC) =          7

                   36 SEVERE DISCONTINUITIES OCCURRED DURING THIS ITERATION.
                   12 POINTS CHANGED FROM OPEN TO CLOSED
                   24 POINTS CHANGED FROM CLOSED TO OPEN

               CONVERGENCE CHECKS FOR SEVERE DISCONTINUITY ITERATION     1

   MAX. PENETRATION ERROR 48.6562E-12  AT NODE PART-1-1.25 OF CONTACT PAIR 
   (ASSEMBLY_S_SURF-23,ASSEMBLY_M_SURF-23)
   MAX. CONTACT FORCE ERROR -18.7508E-03  AT NODE PART-1-1.1541 OF CONTACT PAIR 
   (ASSEMBLY_S_SURF-23,ASSEMBLY_M_SURF-23)
          THE CONTACT CONSTRAINT ERRORS ARE WITHIN THE TOLERANCES.

 AVERAGE FORCE                       35.3       TIME AVG. FORCE        16.3    
 LARGEST RESIDUAL FORCE             -88.0       AT NODE       3154   DOF  2
   INSTANCE: PART-2-1                                                                        
 LARGEST INCREMENT OF DISP.        -2.363E-06   AT NODE       1072   DOF  2
   INSTANCE: PART-2-1                                                                        
 LARGEST CORRECTION TO DISP.       -6.902E-07   AT NODE       3157   DOF  2
   INSTANCE: PART-2-1                                                                        
          FORCE     EQUILIBRIUM NOT ACHIEVED WITHIN TOLERANCE.

  NUMBER OF EQUATIONS =     22656     NUMBER OF RHS =    1
  NUMBER OF FLOATING PT. OPERATIONS =  1.87E+10

     CHECK POINT   START OF SOLVER    

     CHECK POINT  END OF SOLVER       

       ELAPSED USER TIME (SEC)      =   7.4000    
       ELAPSED SYSTEM TIME (SEC)    =   0.0000    
       ELAPSED TOTAL CPU TIME (SEC) =   7.4000    
       ELAPSED WALLCLOCK TIME (SEC) =          7

                   16 SEVERE DISCONTINUITIES OCCURRED DURING THIS ITERATION.
                    8 POINTS CHANGED FROM OPEN TO CLOSED
                    8 POINTS CHANGED FROM CLOSED TO OPEN

               CONVERGENCE CHECKS FOR SEVERE DISCONTINUITY ITERATION     2

   MAX. PENETRATION ERROR 1.96653E-12 AT NODE PART-1-1.289 OF CONTACT PAIR 
   (ASSEMBLY_S_SURF-23,ASSEMBLY_M_SURF-23)
   MAX. CONTACT FORCE ERROR -338.658E-06   AT NODE PART-1-1.1051 OF CONTACT 
   PAIR (ASSEMBLY_S_SURF-23,ASSEMBLY_M_SURF-23)
          THE CONTACT CONSTRAINT ERRORS ARE WITHIN THE TOLERANCES.

 AVERAGE FORCE                       35.4       TIME AVG. FORCE        16.3    
 LARGEST RESIDUAL FORCE              7.71       AT NODE       3156   DOF  2
   INSTANCE: PART-2-1                                                                        
 LARGEST INCREMENT OF DISP.        -2.444E-06   AT NODE       1072   DOF  2
   INSTANCE: PART-2-1                                                                        
 LARGEST CORRECTION TO DISP.       -9.977E-08   AT NODE       1078   DOF  2
   INSTANCE: PART-2-1                                                                        
          FORCE     EQUILIBRIUM NOT ACHIEVED WITHIN TOLERANCE.

  NUMBER OF EQUATIONS =     22656     NUMBER OF RHS =    1
  NUMBER OF FLOATING PT. OPERATIONS =  1.87E+10

     CHECK POINT   START OF SOLVER    

     CHECK POINT  END OF SOLVER       

       ELAPSED USER TIME (SEC)      =   7.3000    
       ELAPSED SYSTEM TIME (SEC)    =  0.10000    
       ELAPSED TOTAL CPU TIME (SEC) =   7.4000    
       ELAPSED WALLCLOCK TIME (SEC) =          8

               CONVERGENCE CHECKS FOR EQUILIBRIUM ITERATION     1

   MAX. PENETRATION ERROR 1.08654E-15 AT NODE PART-1-1.1332 OF CONTACT PAIR 
   (ASSEMBLY_S_SURF-23,ASSEMBLY_M_SURF-23)
   MAX. CONTACT FORCE ERROR 33.8400E-09  AT NODE PART-1-1.1332 OF CONTACT PAIR 
   (ASSEMBLY_S_SURF-23,ASSEMBLY_M_SURF-23)
          THE CONTACT CONSTRAINTS HAVE CONVERGED.

 AVERAGE FORCE                       35.4       TIME AVG. FORCE        16.3    
 LARGEST RESIDUAL FORCE             0.329       AT NODE       3155   DOF  3
   INSTANCE: PART-2-1                                                                        
 LARGEST INCREMENT OF DISP.        -2.446E-06   AT NODE       1072   DOF  2
   INSTANCE: PART-2-1                                                                        
 LARGEST CORRECTION TO DISP.       -3.389E-09   AT NODE       3171   DOF  2
   INSTANCE: PART-2-1                                                                        
          FORCE     EQUILIBRIUM NOT ACHIEVED WITHIN TOLERANCE.

  NUMBER OF EQUATIONS =     22656     NUMBER OF RHS =    1
  NUMBER OF FLOATING PT. OPERATIONS =  1.87E+10

     CHECK POINT   START OF SOLVER    

     CHECK POINT  END OF SOLVER       

       ELAPSED USER TIME (SEC)      =   7.2000    
       ELAPSED SYSTEM TIME (SEC)    =   0.0000    
       ELAPSED TOTAL CPU TIME (SEC) =   7.2000    
       ELAPSED WALLCLOCK TIME (SEC) =          8

               CONVERGENCE CHECKS FOR EQUILIBRIUM ITERATION     2

   MAX. PENETRATION ERROR 1.03996E-15 AT NODE PART-1-1.1593 OF CONTACT PAIR 
   (ASSEMBLY_S_SURF-23,ASSEMBLY_M_SURF-23)
   MAX. CONTACT FORCE ERROR 31.5138E-09  AT NODE PART-1-1.1593 OF CONTACT PAIR 
   (ASSEMBLY_S_SURF-23,ASSEMBLY_M_SURF-23)
          THE CONTACT CONSTRAINTS HAVE CONVERGED.

 AVERAGE FORCE                       35.4       TIME AVG. FORCE        16.3    
 LARGEST RESIDUAL FORCE             1.698E-02   AT NODE       3156   DOF  2
   INSTANCE: PART-2-1                                                                        
 LARGEST INCREMENT OF DISP.        -2.446E-06   AT NODE       1072   DOF  2
   INSTANCE: PART-2-1                                                                        
 LARGEST CORRECTION TO DISP.        1.248E-10   AT NODE       3155   DOF  3
   INSTANCE: PART-2-1                                                                        
          THE FORCE     EQUILIBRIUM EQUATIONS HAVE CONVERGED
          TIME INCREMENT MAY NOW INCREASE TO    5.063E-02

 ITERATION SUMMARY FOR THE INCREMENT:   4 TOTAL ITERATIONS, OF WHICH
   2 ARE SEVERE DISCONTINUITY ITERATIONS AND  2 ARE EQUILIBRIUM ITERATIONS.

 TIME INCREMENT COMPLETED  3.375E-02,  FRACTION OF STEP COMPLETED  9.125E-02
 STEP TIME COMPLETED       9.125E-02,  TOTAL TIME COMPLETED        9.125E-02


  INCREMENT     6 STARTS. ATTEMPT NUMBER  1, TIME INCREMENT  5.063E-02

  NUMBER OF EQUATIONS =     22656     NUMBER OF RHS =    1
  NUMBER OF FLOATING PT. OPERATIONS =  1.87E+10

     CHECK POINT   START OF SOLVER    

     CHECK POINT  END OF SOLVER       

       ELAPSED USER TIME (SEC)      =   7.5000    
       ELAPSED SYSTEM TIME (SEC)    =  0.10000    
       ELAPSED TOTAL CPU TIME (SEC) =   7.6000    
       ELAPSED WALLCLOCK TIME (SEC) =          7

                  100 SEVERE DISCONTINUITIES OCCURRED DURING THIS ITERATION.
                   40 POINTS CHANGED FROM OPEN TO CLOSED
                   60 POINTS CHANGED FROM CLOSED TO OPEN

               CONVERGENCE CHECKS FOR SEVERE DISCONTINUITY ITERATION     1

   MAX. PENETRATION ERROR 85.1929E-12  AT NODE PART-1-1.1317 OF CONTACT PAIR 
   (ASSEMBLY_S_SURF-23,ASSEMBLY_M_SURF-23)
   MAX. CONTACT FORCE ERROR -76.2587E-03  AT NODE PART-1-1.525 OF CONTACT PAIR 
   (ASSEMBLY_S_SURF-23,ASSEMBLY_M_SURF-23)
          THE CONTACT CONSTRAINT ERRORS ARE WITHIN THE TOLERANCES.

 AVERAGE FORCE                       58.2       TIME AVG. FORCE        23.3    
 LARGEST RESIDUAL FORCE             -267.       AT NODE       3152   DOF  2
   INSTANCE: PART-2-1                                                                        
 LARGEST INCREMENT OF DISP.        -5.022E-06   AT NODE       1072   DOF  2
   INSTANCE: PART-2-1                                                                        
 LARGEST CORRECTION TO DISP.       -1.353E-06   AT NODE       1072   DOF  2
   INSTANCE: PART-2-1                                                                        
          FORCE     EQUILIBRIUM NOT ACHIEVED WITHIN TOLERANCE.

  NUMBER OF EQUATIONS =     22656     NUMBER OF RHS =    1
  NUMBER OF FLOATING PT. OPERATIONS =  1.87E+10

     CHECK POINT   START OF SOLVER    

     CHECK POINT  END OF SOLVER       

       ELAPSED USER TIME (SEC)      =   7.5000    
       ELAPSED SYSTEM TIME (SEC)    =   0.0000    
       ELAPSED TOTAL CPU TIME (SEC) =   7.5000    
       ELAPSED WALLCLOCK TIME (SEC) =          7

                   44 SEVERE DISCONTINUITIES OCCURRED DURING THIS ITERATION.
                   36 POINTS CHANGED FROM OPEN TO CLOSED
                    8 POINTS CHANGED FROM CLOSED TO OPEN

               CONVERGENCE CHECKS FOR SEVERE DISCONTINUITY ITERATION     2

   MAX. PENETRATION ERROR 36.0309E-12  AT NODE PART-1-1.1045 OF CONTACT PAIR 
   (ASSEMBLY_S_SURF-23,ASSEMBLY_M_SURF-23)
   MAX. CONTACT FORCE ERROR -24.3213E-03  AT NODE PART-1-1.1307 OF CONTACT PAIR 
   (ASSEMBLY_S_SURF-23,ASSEMBLY_M_SURF-23)
          THE CONTACT CONSTRAINT ERRORS ARE WITHIN THE TOLERANCES.

 AVERAGE FORCE                       58.3       TIME AVG. FORCE        23.3    
 LARGEST RESIDUAL FORCE              69.7       AT NODE       2635   DOF  2
   INSTANCE: PART-2-1                                                                        
 LARGEST INCREMENT OF DISP.        -5.072E-06   AT NODE       1072   DOF  2
   INSTANCE: PART-2-1                                                                        
 LARGEST CORRECTION TO DISP.        5.466E-07   AT NODE        179   DOF  1
   INSTANCE: PART-1-1                                                                        
          FORCE     EQUILIBRIUM NOT ACHIEVED WITHIN TOLERANCE.

  NUMBER OF EQUATIONS =     22656     NUMBER OF RHS =    1
  NUMBER OF FLOATING PT. OPERATIONS =  1.87E+10

     CHECK POINT   START OF SOLVER    

     CHECK POINT  END OF SOLVER       

       ELAPSED USER TIME (SEC)      =   7.4000    
       ELAPSED SYSTEM TIME (SEC)    =  0.10000    
       ELAPSED TOTAL CPU TIME (SEC) =   7.5000    
       ELAPSED WALLCLOCK TIME (SEC) =          7

                   24 SEVERE DISCONTINUITIES OCCURRED DURING THIS ITERATION.
                    8 POINTS CHANGED FROM OPEN TO CLOSED
                   16 POINTS CHANGED FROM CLOSED TO OPEN

               CONVERGENCE CHECKS FOR SEVERE DISCONTINUITY ITERATION     3

   MAX. PENETRATION ERROR 5.35510E-12 AT NODE PART-1-1.1116 OF CONTACT PAIR 
   (ASSEMBLY_S_SURF-23,ASSEMBLY_M_SURF-23)
   MAX. CONTACT FORCE ERROR -2.40883E-03 AT NODE PART-1-1.22 OF CONTACT PAIR 
   (ASSEMBLY_S_SURF-23,ASSEMBLY_M_SURF-23)
          THE CONTACT CONSTRAINT ERRORS ARE WITHIN THE TOLERANCES.

 AVERAGE FORCE                       58.3       TIME AVG. FORCE        23.3    
 LARGEST RESIDUAL FORCE             -9.28       AT NODE       3132   DOF  2
   INSTANCE: PART-2-1                                                                        
 LARGEST INCREMENT OF DISP.        -5.048E-06   AT NODE       1072   DOF  2
   INSTANCE: PART-2-1                                                                        
 LARGEST CORRECTION TO DISP.       -6.968E-08   AT NODE        314   DOF  2
   INSTANCE: PART-2-1                                                                        
          FORCE     EQUILIBRIUM NOT ACHIEVED WITHIN TOLERANCE.

  NUMBER OF EQUATIONS =     22656     NUMBER OF RHS =    1
  NUMBER OF FLOATING PT. OPERATIONS =  1.87E+10

     CHECK POINT   START OF SOLVER    

     CHECK POINT  END OF SOLVER       

       ELAPSED USER TIME (SEC)      =   7.5000    
       ELAPSED SYSTEM TIME (SEC)    =   0.0000    
       ELAPSED TOTAL CPU TIME (SEC) =   7.5000    
       ELAPSED WALLCLOCK TIME (SEC) =          7

               CONVERGENCE CHECKS FOR EQUILIBRIUM ITERATION     1

   MAX. PENETRATION ERROR 1.15526E-15 AT NODE PART-1-1.1846 OF CONTACT PAIR 
   (ASSEMBLY_S_SURF-23,ASSEMBLY_M_SURF-23)
   MAX. CONTACT FORCE ERROR 39.4599E-09  AT NODE PART-1-1.1333 OF CONTACT PAIR 
   (ASSEMBLY_S_SURF-23,ASSEMBLY_M_SURF-23)
          THE CONTACT CONSTRAINTS HAVE CONVERGED.

 AVERAGE FORCE                       58.3       TIME AVG. FORCE        23.3    
 LARGEST RESIDUAL FORCE             -2.69       AT NODE        185   DOF  2
   INSTANCE: PART-2-1                                                                        
 LARGEST INCREMENT OF DISP.        -5.050E-06   AT NODE       1072   DOF  2
   INSTANCE: PART-2-1                                                                        
 LARGEST CORRECTION TO DISP.       -1.359E-08   AT NODE       3132   DOF  2
   INSTANCE: PART-2-1                                                                        
          FORCE     EQUILIBRIUM NOT ACHIEVED WITHIN TOLERANCE.

  NUMBER OF EQUATIONS =     22656     NUMBER OF RHS =    1
  NUMBER OF FLOATING PT. OPERATIONS =  1.87E+10

     CHECK POINT   START OF SOLVER    

     CHECK POINT  END OF SOLVER       

       ELAPSED USER TIME (SEC)      =   7.4000    
       ELAPSED SYSTEM TIME (SEC)    =  0.10000    
       ELAPSED TOTAL CPU TIME (SEC) =   7.5000    
       ELAPSED WALLCLOCK TIME (SEC) =          7

               CONVERGENCE CHECKS FOR EQUILIBRIUM ITERATION     2

   MAX. PENETRATION ERROR -1.00463E-15 AT NODE PART-1-1.954 OF CONTACT PAIR 
   (ASSEMBLY_S_SURF-23,ASSEMBLY_M_SURF-23)
   MAX. CONTACT FORCE ERROR -29.7987E-09  AT NODE PART-1-1.955 OF CONTACT PAIR 
   (ASSEMBLY_S_SURF-23,ASSEMBLY_M_SURF-23)
          THE CONTACT CONSTRAINTS HAVE CONVERGED.

 AVERAGE FORCE                       58.3       TIME AVG. FORCE        23.3    
 LARGEST RESIDUAL FORCE             5.161E-02   AT NODE       3153   DOF  2
   INSTANCE: PART-2-1                                                                        
 LARGEST INCREMENT OF DISP.        -5.050E-06   AT NODE       1072   DOF  2
   INSTANCE: PART-2-1                                                                        
 LARGEST CORRECTION TO DISP.       -2.536E-09   AT NODE       1025   DOF  3
   INSTANCE: PART-2-1                                                                        
          THE FORCE     EQUILIBRIUM EQUATIONS HAVE CONVERGED
          TIME INCREMENT MAY NOW INCREASE TO    7.594E-02

 ITERATION SUMMARY FOR THE INCREMENT:   5 TOTAL ITERATIONS, OF WHICH
   3 ARE SEVERE DISCONTINUITY ITERATIONS AND  2 ARE EQUILIBRIUM ITERATIONS.

 TIME INCREMENT COMPLETED  5.063E-02,  FRACTION OF STEP COMPLETED  0.142    
 STEP TIME COMPLETED       0.142    ,  TOTAL TIME COMPLETED        0.142    


  INCREMENT     7 STARTS. ATTEMPT NUMBER  1, TIME INCREMENT  7.594E-02

                   52 SEVERE DISCONTINUITIES OCCURRED DURING INCREMENT ATTEMPT INITIALIZATION.
                   52 POINTS CHANGED TO SLIPPING WITH NEGATIVE CPRESS

  NUMBER OF EQUATIONS =     22656     NUMBER OF RHS =    1
  NUMBER OF FLOATING PT. OPERATIONS =  1.87E+10

     CHECK POINT   START OF SOLVER    

     CHECK POINT  END OF SOLVER       

       ELAPSED USER TIME (SEC)      =   7.4000    
       ELAPSED SYSTEM TIME (SEC)    =  0.10000    
       ELAPSED TOTAL CPU TIME (SEC) =   7.5000    
       ELAPSED WALLCLOCK TIME (SEC) =          8

                  120 SEVERE DISCONTINUITIES OCCURRED DURING THIS ITERATION.
                   52 POINTS CHANGED FROM OPEN TO CLOSED
                   68 POINTS CHANGED FROM CLOSED TO OPEN

               CONVERGENCE CHECKS FOR SEVERE DISCONTINUITY ITERATION     1

   MAX. PENETRATION ERROR 985.192E-12   AT NODE PART-1-1.1101 OF CONTACT PAIR 
   (ASSEMBLY_S_SURF-23,ASSEMBLY_M_SURF-23)
   MAX. CONTACT FORCE ERROR -179.902E-03   AT NODE PART-1-1.1037 OF CONTACT 
   PAIR (ASSEMBLY_S_SURF-23,ASSEMBLY_M_SURF-23)
          THE CONTACT CONSTRAINT ERRORS ARE WITHIN THE TOLERANCES.

 AVERAGE FORCE                       96.7       TIME AVG. FORCE        33.8    
 LARGEST RESIDUAL FORCE              384.       AT NODE       4652   DOF  3
   INSTANCE: PART-2-1                                                                        
 LARGEST INCREMENT OF DISP.        -9.489E-06   AT NODE       1075   DOF  2
   INSTANCE: PART-2-1                                                                        
 LARGEST CORRECTION TO DISP.       -2.214E-06   AT NODE       1080   DOF  2
   INSTANCE: PART-2-1                                                                        
          FORCE     EQUILIBRIUM NOT ACHIEVED WITHIN TOLERANCE.

  NUMBER OF EQUATIONS =     22656     NUMBER OF RHS =    1
  NUMBER OF FLOATING PT. OPERATIONS =  1.87E+10

     CHECK POINT   START OF SOLVER    

     CHECK POINT  END OF SOLVER       

       ELAPSED USER TIME (SEC)      =   7.2000    
       ELAPSED SYSTEM TIME (SEC)    =  0.10000    
       ELAPSED TOTAL CPU TIME (SEC) =   7.3000    
       ELAPSED WALLCLOCK TIME (SEC) =          8

                   40 SEVERE DISCONTINUITIES OCCURRED DURING THIS ITERATION.
                   16 POINTS CHANGED FROM OPEN TO CLOSED
                   24 POINTS CHANGED FROM CLOSED TO OPEN

               CONVERGENCE CHECKS FOR SEVERE DISCONTINUITY ITERATION     2

   MAX. PENETRATION ERROR 268.156E-12   AT NODE PART-1-1.275 OF CONTACT PAIR 
   (ASSEMBLY_S_SURF-23,ASSEMBLY_M_SURF-23)
   MAX. CONTACT FORCE ERROR -206.249E-03   AT NODE PART-1-1.1606 OF CONTACT 
   PAIR (ASSEMBLY_S_SURF-23,ASSEMBLY_M_SURF-23)
          THE CONTACT CONSTRAINT ERRORS ARE WITHIN THE TOLERANCES.

 AVERAGE FORCE                       96.8       TIME AVG. FORCE        33.8    
 LARGEST RESIDUAL FORCE             -14.4       AT NODE        185   DOF  2
   INSTANCE: PART-2-1                                                                        
 LARGEST INCREMENT OF DISP.        -9.600E-06   AT NODE       1075   DOF  2
   INSTANCE: PART-2-1                                                                        
 LARGEST CORRECTION TO DISP.       -3.976E-07   AT NODE       1078   DOF  2
   INSTANCE: PART-2-1                                                                        
          FORCE     EQUILIBRIUM NOT ACHIEVED WITHIN TOLERANCE.

  NUMBER OF EQUATIONS =     22656     NUMBER OF RHS =    1
  NUMBER OF FLOATING PT. OPERATIONS =  1.87E+10

     CHECK POINT   START OF SOLVER    

     CHECK POINT  END OF SOLVER       

       ELAPSED USER TIME (SEC)      =   8.1000    
       ELAPSED SYSTEM TIME (SEC)    =  0.10000    
       ELAPSED TOTAL CPU TIME (SEC) =   8.2000    
       ELAPSED WALLCLOCK TIME (SEC) =          9

               CONVERGENCE CHECKS FOR EQUILIBRIUM ITERATION     1

   MAX. PENETRATION ERROR 943.870E-18   AT NODE PART-1-1.948 OF CONTACT PAIR 
   (ASSEMBLY_S_SURF-23,ASSEMBLY_M_SURF-23)
   MAX. CONTACT FORCE ERROR -29.4297E-09  AT NODE PART-1-1.1553 OF CONTACT PAIR 
   (ASSEMBLY_S_SURF-23,ASSEMBLY_M_SURF-23)
          THE CONTACT CONSTRAINTS HAVE CONVERGED.

 AVERAGE FORCE                       96.7       TIME AVG. FORCE        33.8    
 LARGEST RESIDUAL FORCE              6.32       AT NODE       1091   DOF  1
   INSTANCE: PART-2-1                                                                        
 LARGEST INCREMENT OF DISP.        -9.603E-06   AT NODE       1075   DOF  2
   INSTANCE: PART-2-1                                                                        
 LARGEST CORRECTION TO DISP.       -2.332E-08   AT NODE        114   DOF  2
   INSTANCE: PART-2-1                                                                        
          FORCE     EQUILIBRIUM NOT ACHIEVED WITHIN TOLERANCE.

  NUMBER OF EQUATIONS =     22656     NUMBER OF RHS =    1
  NUMBER OF FLOATING PT. OPERATIONS =  1.87E+10

     CHECK POINT   START OF SOLVER    

     CHECK POINT  END OF SOLVER       

       ELAPSED USER TIME (SEC)      =   8.2000    
       ELAPSED SYSTEM TIME (SEC)    =  0.10000    
       ELAPSED TOTAL CPU TIME (SEC) =   8.3000    
       ELAPSED WALLCLOCK TIME (SEC) =          9

               CONVERGENCE CHECKS FOR EQUILIBRIUM ITERATION     2

   MAX. PENETRATION ERROR -1.09255E-15 AT NODE PART-1-1.1052 OF CONTACT PAIR 
   (ASSEMBLY_S_SURF-23,ASSEMBLY_M_SURF-23)
   MAX. CONTACT FORCE ERROR -34.9469E-09  AT NODE PART-1-1.1052 OF CONTACT PAIR 
   (ASSEMBLY_S_SURF-23,ASSEMBLY_M_SURF-23)
          THE CONTACT CONSTRAINTS HAVE CONVERGED.

 AVERAGE FORCE                       96.7       TIME AVG. FORCE        33.8    
 LARGEST RESIDUAL FORCE             -6.20       AT NODE       1091   DOF  1
   INSTANCE: PART-2-1                                                                        
 LARGEST INCREMENT OF DISP.        -9.604E-06   AT NODE       1075   DOF  2
   INSTANCE: PART-2-1                                                                        
 LARGEST CORRECTION TO DISP.       -3.158E-09   AT NODE       1028   DOF  2
   INSTANCE: PART-2-1                                                                        
          FORCE     EQUILIBRIUM NOT ACHIEVED WITHIN TOLERANCE.

  NUMBER OF EQUATIONS =     22656     NUMBER OF RHS =    1
  NUMBER OF FLOATING PT. OPERATIONS =  1.87E+10

     CHECK POINT   START OF SOLVER    

     CHECK POINT  END OF SOLVER       

       ELAPSED USER TIME (SEC)      =   7.4000    
       ELAPSED SYSTEM TIME (SEC)    =  0.10000    
       ELAPSED TOTAL CPU TIME (SEC) =   7.5000    
       ELAPSED WALLCLOCK TIME (SEC) =          8

               CONVERGENCE CHECKS FOR EQUILIBRIUM ITERATION     3

   MAX. PENETRATION ERROR -918.160E-18   AT NODE PART-1-1.1719 OF CONTACT PAIR 
   (ASSEMBLY_S_SURF-23,ASSEMBLY_M_SURF-23)
   MAX. CONTACT FORCE ERROR -26.4982E-09  AT NODE PART-1-1.1719 OF CONTACT PAIR 
   (ASSEMBLY_S_SURF-23,ASSEMBLY_M_SURF-23)
          THE CONTACT CONSTRAINTS HAVE CONVERGED.

 AVERAGE FORCE                       96.7       TIME AVG. FORCE        33.8    
 LARGEST RESIDUAL FORCE              6.32       AT NODE       1091   DOF  1
   INSTANCE: PART-2-1                                                                        
 LARGEST INCREMENT OF DISP.        -9.604E-06   AT NODE       1075   DOF  2
   INSTANCE: PART-2-1                                                                        
 LARGEST CORRECTION TO DISP.       -2.917E-09   AT NODE       3289   DOF  3
   INSTANCE: PART-2-1                                                                        
          FORCE     EQUILIBRIUM NOT ACHIEVED WITHIN TOLERANCE.

  NUMBER OF EQUATIONS =     22656     NUMBER OF RHS =    1
  NUMBER OF FLOATING PT. OPERATIONS =  1.87E+10

     CHECK POINT   START OF SOLVER    

     CHECK POINT  END OF SOLVER       

       ELAPSED USER TIME (SEC)      =   7.5000    
       ELAPSED SYSTEM TIME (SEC)    =  0.10000    
       ELAPSED TOTAL CPU TIME (SEC) =   7.6000    
       ELAPSED WALLCLOCK TIME (SEC) =          8

               CONVERGENCE CHECKS FOR EQUILIBRIUM ITERATION     4

   MAX. PENETRATION ERROR 895.106E-18   AT NODE PART-1-1.439 OF CONTACT PAIR 
   (ASSEMBLY_S_SURF-23,ASSEMBLY_M_SURF-23)
   MAX. CONTACT FORCE ERROR -29.7617E-09  AT NODE PART-1-1.1557 OF CONTACT PAIR 
   (ASSEMBLY_S_SURF-23,ASSEMBLY_M_SURF-23)
          THE CONTACT CONSTRAINTS HAVE CONVERGED.

 AVERAGE FORCE                       96.7       TIME AVG. FORCE        33.8    
 LARGEST RESIDUAL FORCE             -6.20       AT NODE       1091   DOF  1
   INSTANCE: PART-2-1                                                                        
 LARGEST INCREMENT OF DISP.        -9.604E-06   AT NODE       1075   DOF  2
   INSTANCE: PART-2-1                                                                        
 LARGEST CORRECTION TO DISP.        2.910E-09   AT NODE       1027   DOF  3
   INSTANCE: PART-2-1                                                                        
          FORCE     EQUILIBRIUM NOT ACHIEVED WITHIN TOLERANCE.

  NUMBER OF EQUATIONS =     22656     NUMBER OF RHS =    1
  NUMBER OF FLOATING PT. OPERATIONS =  1.87E+10

     CHECK POINT   START OF SOLVER    

     CHECK POINT  END OF SOLVER       

       ELAPSED USER TIME (SEC)      =   7.3000    
       ELAPSED SYSTEM TIME (SEC)    =  0.10000    
       ELAPSED TOTAL CPU TIME (SEC) =   7.4000    
       ELAPSED WALLCLOCK TIME (SEC) =          8

               CONVERGENCE CHECKS FOR EQUILIBRIUM ITERATION     5

   MAX. PENETRATION ERROR -952.152E-18   AT NODE PART-1-1.83 OF CONTACT PAIR 
   (ASSEMBLY_S_SURF-23,ASSEMBLY_M_SURF-23)
   MAX. CONTACT FORCE ERROR -32.8223E-09  AT NODE PART-1-1.83 OF CONTACT PAIR 
   (ASSEMBLY_S_SURF-23,ASSEMBLY_M_SURF-23)
          THE CONTACT CONSTRAINTS HAVE CONVERGED.

 AVERAGE FORCE                       96.8       TIME AVG. FORCE        33.8    
 LARGEST RESIDUAL FORCE              6.32       AT NODE       1091   DOF  1
   INSTANCE: PART-2-1                                                                        
 LARGEST INCREMENT OF DISP.        -9.604E-06   AT NODE       1075   DOF  2
   INSTANCE: PART-2-1                                                                        
 LARGEST CORRECTION TO DISP.        3.059E-09   AT NODE       1028   DOF  2
   INSTANCE: PART-2-1                                                                        
          FORCE     EQUILIBRIUM NOT ACHIEVED WITHIN TOLERANCE.
 

 ***NOTE: THE SOLUTION APPEARS TO BE DIVERGING. CONVERGENCE IS JUDGED UNLIKELY.


  INCREMENT     7 STARTS. ATTEMPT NUMBER  2, TIME INCREMENT  1.898E-02

                   36 SEVERE DISCONTINUITIES OCCURRED DURING INCREMENT ATTEMPT INITIALIZATION.
                   36 POINTS CHANGED TO SLIPPING WITH NEGATIVE CPRESS

  NUMBER OF EQUATIONS =     22656     NUMBER OF RHS =    1
  NUMBER OF FLOATING PT. OPERATIONS =  1.87E+10

     CHECK POINT   START OF SOLVER    

     CHECK POINT  END OF SOLVER       

       ELAPSED USER TIME (SEC)      =   7.4000    
       ELAPSED SYSTEM TIME (SEC)    =   0.0000    
       ELAPSED TOTAL CPU TIME (SEC) =   7.4000    
       ELAPSED WALLCLOCK TIME (SEC) =          8

                   40 SEVERE DISCONTINUITIES OCCURRED DURING THIS ITERATION.
                    4 POINTS CHANGED FROM OPEN TO CLOSED
                    8 POINTS CHANGED FROM CLOSED TO OPEN
                   28 POINTS CHANGED FROM SLIPPING TO STICKING

               CONVERGENCE CHECKS FOR SEVERE DISCONTINUITY ITERATION     1

   MAX. PENETRATION ERROR 503.447E-12   AT NODE PART-1-1.1101 OF CONTACT PAIR 
   (ASSEMBLY_S_SURF-23,ASSEMBLY_M_SURF-23)
   MAX. CONTACT FORCE ERROR -82.0235E-03  AT NODE PART-1-1.1037 OF CONTACT PAIR 
   (ASSEMBLY_S_SURF-23,ASSEMBLY_M_SURF-23)
          THE CONTACT CONSTRAINT ERRORS ARE WITHIN THE TOLERANCES.

 AVERAGE FORCE                       67.9       TIME AVG. FORCE        29.7    
 LARGEST RESIDUAL FORCE              53.2       AT NODE       1313   DOF  1
   INSTANCE: PART-2-1                                                                        
 LARGEST INCREMENT OF DISP.        -2.193E-06   AT NODE       1075   DOF  2
   INSTANCE: PART-2-1                                                                        
 LARGEST CORRECTION TO DISP.       -3.389E-07   AT NODE       1070   DOF  2
   INSTANCE: PART-2-1                                                                        
          FORCE     EQUILIBRIUM NOT ACHIEVED WITHIN TOLERANCE.

  NUMBER OF EQUATIONS =     22656     NUMBER OF RHS =    1
  NUMBER OF FLOATING PT. OPERATIONS =  1.87E+10

     CHECK POINT   START OF SOLVER    

     CHECK POINT  END OF SOLVER       

       ELAPSED USER TIME (SEC)      =   7.9000    
       ELAPSED SYSTEM TIME (SEC)    =  0.10000    
       ELAPSED TOTAL CPU TIME (SEC) =   8.0000    
       ELAPSED WALLCLOCK TIME (SEC) =          9

                    8 SEVERE DISCONTINUITIES OCCURRED DURING THIS ITERATION.
                    8 POINTS CHANGED FROM OPEN TO CLOSED

               CONVERGENCE CHECKS FOR SEVERE DISCONTINUITY ITERATION     2

   MAX. PENETRATION ERROR 1.95587E-12 AT NODE PART-1-1.1537 OF CONTACT PAIR 
   (ASSEMBLY_S_SURF-23,ASSEMBLY_M_SURF-23)
   MAX. CONTACT FORCE ERROR 80.6713E-06  AT NODE PART-1-1.1537 OF CONTACT PAIR 
   (ASSEMBLY_S_SURF-23,ASSEMBLY_M_SURF-23)
          THE CONTACT CONSTRAINT ERRORS ARE WITHIN THE TOLERANCES.

 AVERAGE FORCE                       67.9       TIME AVG. FORCE        29.7    
 LARGEST RESIDUAL FORCE              3.25       AT NODE       3292   DOF  3
   INSTANCE: PART-2-1                                                                        
 LARGEST INCREMENT OF DISP.        -2.203E-06   AT NODE       1075   DOF  2
   INSTANCE: PART-2-1                                                                        
 LARGEST CORRECTION TO DISP.        3.636E-08   AT NODE         62   DOF  3
   INSTANCE: PART-2-1                                                                        
          FORCE     EQUILIBRIUM NOT ACHIEVED WITHIN TOLERANCE.

  NUMBER OF EQUATIONS =     22656     NUMBER OF RHS =    1
  NUMBER OF FLOATING PT. OPERATIONS =  1.87E+10

     CHECK POINT   START OF SOLVER    

     CHECK POINT  END OF SOLVER       

       ELAPSED USER TIME (SEC)      =   7.5000    
       ELAPSED SYSTEM TIME (SEC)    =  0.10000    
       ELAPSED TOTAL CPU TIME (SEC) =   7.6000    
       ELAPSED WALLCLOCK TIME (SEC) =          8

               CONVERGENCE CHECKS FOR EQUILIBRIUM ITERATION     1

   MAX. PENETRATION ERROR 953.711E-18   AT NODE PART-1-1.1287 OF CONTACT PAIR 
   (ASSEMBLY_S_SURF-23,ASSEMBLY_M_SURF-23)
   MAX. CONTACT FORCE ERROR 30.5059E-09  AT NODE PART-1-1.1287 OF CONTACT PAIR 
   (ASSEMBLY_S_SURF-23,ASSEMBLY_M_SURF-23)
          THE CONTACT CONSTRAINTS HAVE CONVERGED.

 AVERAGE FORCE                       67.9       TIME AVG. FORCE        29.7    
 LARGEST RESIDUAL FORCE             3.074E-02   AT NODE        111   DOF  2
   INSTANCE: PART-2-1                                                                        
 LARGEST INCREMENT OF DISP.        -2.203E-06   AT NODE       1075   DOF  2
   INSTANCE: PART-2-1                                                                        
 LARGEST CORRECTION TO DISP.       -3.893E-09   AT NODE        422   DOF  3
   INSTANCE: PART-1-1                                                                        
          THE FORCE     EQUILIBRIUM EQUATIONS HAVE CONVERGED
          TIME INCREMENT MAY NOW INCREASE TO    2.848E-02

 ITERATION SUMMARY FOR THE INCREMENT:   3 TOTAL ITERATIONS, OF WHICH
   2 ARE SEVERE DISCONTINUITY ITERATIONS AND  1 ARE EQUILIBRIUM ITERATIONS.

 TIME INCREMENT COMPLETED  1.898E-02,  FRACTION OF STEP COMPLETED  0.161    
 STEP TIME COMPLETED       0.161    ,  TOTAL TIME COMPLETED        0.161    


  INCREMENT     8 STARTS. ATTEMPT NUMBER  1, TIME INCREMENT  2.848E-02

                   16 SEVERE DISCONTINUITIES OCCURRED DURING INCREMENT ATTEMPT INITIALIZATION.
                   16 POINTS CHANGED TO SLIPPING WITH NEGATIVE CPRESS

  NUMBER OF EQUATIONS =     22656     NUMBER OF RHS =    1
  NUMBER OF FLOATING PT. OPERATIONS =  1.87E+10

     CHECK POINT   START OF SOLVER    

     CHECK POINT  END OF SOLVER       

       ELAPSED USER TIME (SEC)      =   7.6000    
       ELAPSED SYSTEM TIME (SEC)    =  0.10000    
       ELAPSED TOTAL CPU TIME (SEC) =   7.7000    
       ELAPSED WALLCLOCK TIME (SEC) =          8

                   44 SEVERE DISCONTINUITIES OCCURRED DURING THIS ITERATION.
                   16 POINTS CHANGED FROM OPEN TO CLOSED
                   28 POINTS CHANGED FROM CLOSED TO OPEN

               CONVERGENCE CHECKS FOR SEVERE DISCONTINUITY ITERATION     1

   MAX. PENETRATION ERROR 50.7793E-12  AT NODE PART-1-1.1347 OF CONTACT PAIR 
   (ASSEMBLY_S_SURF-23,ASSEMBLY_M_SURF-23)
   MAX. CONTACT FORCE ERROR -116.657E-03   AT NODE PART-1-1.1114 OF CONTACT 
   PAIR (ASSEMBLY_S_SURF-23,ASSEMBLY_M_SURF-23)
          THE CONTACT CONSTRAINT ERRORS ARE WITHIN THE TOLERANCES.

 AVERAGE FORCE                       82.5       TIME AVG. FORCE        36.3    
 LARGEST RESIDUAL FORCE             -67.1       AT NODE       4621   DOF  3
   INSTANCE: PART-2-1                                                                        
 LARGEST INCREMENT OF DISP.        -3.550E-06   AT NODE       1075   DOF  2
   INSTANCE: PART-2-1                                                                        
 LARGEST CORRECTION TO DISP.       -3.532E-07   AT NODE       1078   DOF  2
   INSTANCE: PART-2-1                                                                        
          FORCE     EQUILIBRIUM NOT ACHIEVED WITHIN TOLERANCE.

  NUMBER OF EQUATIONS =     22656     NUMBER OF RHS =    1
  NUMBER OF FLOATING PT. OPERATIONS =  1.87E+10

     CHECK POINT   START OF SOLVER    

     CHECK POINT  END OF SOLVER       

       ELAPSED USER TIME (SEC)      =   7.3000    
       ELAPSED SYSTEM TIME (SEC)    =  0.10000    
       ELAPSED TOTAL CPU TIME (SEC) =   7.4000    
       ELAPSED WALLCLOCK TIME (SEC) =          8

               CONVERGENCE CHECKS FOR EQUILIBRIUM ITERATION     1

   MAX. PENETRATION ERROR -1.41233E-15 AT NODE PART-1-1.1817 OF CONTACT PAIR 
   (ASSEMBLY_S_SURF-23,ASSEMBLY_M_SURF-23)
   MAX. CONTACT FORCE ERROR -47.5534E-09  AT NODE PART-1-1.1817 OF CONTACT PAIR 
   (ASSEMBLY_S_SURF-23,ASSEMBLY_M_SURF-23)
          THE CONTACT CONSTRAINTS HAVE CONVERGED.

 AVERAGE FORCE                       82.4       TIME AVG. FORCE        36.2    
 LARGEST RESIDUAL FORCE              6.14       AT NODE       4625   DOF  3
   INSTANCE: PART-2-1                                                                        
 LARGEST INCREMENT OF DISP.        -3.559E-06   AT NODE       1070   DOF  2
   INSTANCE: PART-2-1                                                                        
 LARGEST CORRECTION TO DISP.        9.610E-08   AT NODE       2607   DOF  3
   INSTANCE: PART-2-1                                                                        
          FORCE     EQUILIBRIUM NOT ACHIEVED WITHIN TOLERANCE.

  NUMBER OF EQUATIONS =     22656     NUMBER OF RHS =    1
  NUMBER OF FLOATING PT. OPERATIONS =  1.87E+10

     CHECK POINT   START OF SOLVER    

     CHECK POINT  END OF SOLVER       

       ELAPSED USER TIME (SEC)      =   7.4000    
       ELAPSED SYSTEM TIME (SEC)    =  0.10000    
       ELAPSED TOTAL CPU TIME (SEC) =   7.5000    
       ELAPSED WALLCLOCK TIME (SEC) =          7

               CONVERGENCE CHECKS FOR EQUILIBRIUM ITERATION     2

   MAX. PENETRATION ERROR 1.13072E-15 AT NODE PART-1-1.1557 OF CONTACT PAIR 
   (ASSEMBLY_S_SURF-23,ASSEMBLY_M_SURF-23)
   MAX. CONTACT FORCE ERROR 38.0715E-09  AT NODE PART-1-1.1557 OF CONTACT PAIR 
   (ASSEMBLY_S_SURF-23,ASSEMBLY_M_SURF-23)
          THE CONTACT CONSTRAINTS HAVE CONVERGED.

 AVERAGE FORCE                       82.4       TIME AVG. FORCE        36.3    
 LARGEST RESIDUAL FORCE            -0.100       AT NODE       3927   DOF  3
   INSTANCE: PART-2-1                                                                        
 LARGEST INCREMENT OF DISP.        -3.559E-06   AT NODE       1070   DOF  2
   INSTANCE: PART-2-1                                                                        
 LARGEST CORRECTION TO DISP.       -3.839E-09   AT NODE        185   DOF  2
   INSTANCE: PART-2-1                                                                        
          THE FORCE     EQUILIBRIUM EQUATIONS HAVE CONVERGED
          TIME INCREMENT MAY NOW INCREASE TO    4.271E-02

 ITERATION SUMMARY FOR THE INCREMENT:   3 TOTAL ITERATIONS, OF WHICH
   1 ARE SEVERE DISCONTINUITY ITERATIONS AND  2 ARE EQUILIBRIUM ITERATIONS.

 TIME INCREMENT COMPLETED  2.848E-02,  FRACTION OF STEP COMPLETED  0.189    
 STEP TIME COMPLETED       0.189    ,  TOTAL TIME COMPLETED        0.189    


  INCREMENT     9 STARTS. ATTEMPT NUMBER  1, TIME INCREMENT  4.271E-02

                   48 SEVERE DISCONTINUITIES OCCURRED DURING INCREMENT ATTEMPT INITIALIZATION.
                   48 POINTS CHANGED TO SLIPPING WITH NEGATIVE CPRESS

  NUMBER OF EQUATIONS =     22656     NUMBER OF RHS =    1
  NUMBER OF FLOATING PT. OPERATIONS =  1.87E+10

     CHECK POINT   START OF SOLVER    

     CHECK POINT  END OF SOLVER       

       ELAPSED USER TIME (SEC)      =   7.4000    
       ELAPSED SYSTEM TIME (SEC)    =   0.0000    
       ELAPSED TOTAL CPU TIME (SEC) =   7.4000    
       ELAPSED WALLCLOCK TIME (SEC) =          8

                   72 SEVERE DISCONTINUITIES OCCURRED DURING THIS ITERATION.
                   24 POINTS CHANGED FROM OPEN TO CLOSED
                   32 POINTS CHANGED FROM CLOSED TO OPEN
                   16 POINTS CHANGED FROM SLIPPING TO STICKING

               CONVERGENCE CHECKS FOR SEVERE DISCONTINUITY ITERATION     1

   MAX. PENETRATION ERROR 228.780E-12   AT NODE PART-1-1.1277 OF CONTACT PAIR 
   (ASSEMBLY_S_SURF-23,ASSEMBLY_M_SURF-23)
   MAX. CONTACT FORCE ERROR -592.604E-03   AT NODE PART-1-1.1082 OF CONTACT 
   PAIR (ASSEMBLY_S_SURF-23,ASSEMBLY_M_SURF-23)
          THE CONTACT CONSTRAINT ERRORS ARE WITHIN THE TOLERANCES.

 AVERAGE FORCE                       105.       TIME AVG. FORCE        43.9    
 LARGEST RESIDUAL FORCE              24.5       AT NODE       3968   DOF  1
   INSTANCE: PART-2-1                                                                        
 LARGEST INCREMENT OF DISP.        -5.837E-06   AT NODE       1079   DOF  2
   INSTANCE: PART-2-1                                                                        
 LARGEST CORRECTION TO DISP.       -5.680E-07   AT NODE       1078   DOF  2
   INSTANCE: PART-2-1                                                                        
          FORCE     EQUILIBRIUM NOT ACHIEVED WITHIN TOLERANCE.

  NUMBER OF EQUATIONS =     22656     NUMBER OF RHS =    1
  NUMBER OF FLOATING PT. OPERATIONS =  1.87E+10

     CHECK POINT   START OF SOLVER    

     CHECK POINT  END OF SOLVER       

       ELAPSED USER TIME (SEC)      =   7.4000    
       ELAPSED SYSTEM TIME (SEC)    =  0.10000    
       ELAPSED TOTAL CPU TIME (SEC) =   7.5000    
       ELAPSED WALLCLOCK TIME (SEC) =          8

               CONVERGENCE CHECKS FOR EQUILIBRIUM ITERATION     1

   MAX. PENETRATION ERROR -1.08031E-15 AT NODE PART-1-1.917 OF CONTACT PAIR 
   (ASSEMBLY_S_SURF-23,ASSEMBLY_M_SURF-23)
   MAX. CONTACT FORCE ERROR -36.3739E-09  AT NODE PART-1-1.917 OF CONTACT PAIR 
   (ASSEMBLY_S_SURF-23,ASSEMBLY_M_SURF-23)
          THE CONTACT CONSTRAINTS HAVE CONVERGED.

 AVERAGE FORCE                       105.       TIME AVG. FORCE        43.9    
 LARGEST RESIDUAL FORCE              2.57       AT NODE       2068   DOF  3
   INSTANCE: PART-2-1                                                                        
 LARGEST INCREMENT OF DISP.        -5.876E-06   AT NODE       1079   DOF  2
   INSTANCE: PART-2-1                                                                        
 LARGEST CORRECTION TO DISP.        5.648E-08   AT NODE        114   DOF  3
   INSTANCE: PART-2-1                                                                        
          FORCE     EQUILIBRIUM NOT ACHIEVED WITHIN TOLERANCE.

  NUMBER OF EQUATIONS =     22656     NUMBER OF RHS =    1
  NUMBER OF FLOATING PT. OPERATIONS =  1.87E+10

     CHECK POINT   START OF SOLVER    

     CHECK POINT  END OF SOLVER       

       ELAPSED USER TIME (SEC)      =   7.5000    
       ELAPSED SYSTEM TIME (SEC)    =  0.10000    
       ELAPSED TOTAL CPU TIME (SEC) =   7.6000    
       ELAPSED WALLCLOCK TIME (SEC) =          8

               CONVERGENCE CHECKS FOR EQUILIBRIUM ITERATION     2

   MAX. PENETRATION ERROR 1.25998E-15 AT NODE PART-1-1.1327 OF CONTACT PAIR 
   (ASSEMBLY_S_SURF-23,ASSEMBLY_M_SURF-23)
   MAX. CONTACT FORCE ERROR 38.1811E-09  AT NODE PART-1-1.1327 OF CONTACT PAIR 
   (ASSEMBLY_S_SURF-23,ASSEMBLY_M_SURF-23)
          THE CONTACT CONSTRAINTS HAVE CONVERGED.

 AVERAGE FORCE                       105.       TIME AVG. FORCE        43.9    
 LARGEST RESIDUAL FORCE              2.08       AT NODE       1205   DOF  3
   INSTANCE: PART-2-1                                                                        
 LARGEST INCREMENT OF DISP.        -5.876E-06   AT NODE       1079   DOF  2
   INSTANCE: PART-2-1                                                                        
 LARGEST CORRECTION TO DISP.        2.595E-09   AT NODE        113   DOF  2
   INSTANCE: PART-2-1                                                                        
          FORCE     EQUILIBRIUM NOT ACHIEVED WITHIN TOLERANCE.

  NUMBER OF EQUATIONS =     22656     NUMBER OF RHS =    1
  NUMBER OF FLOATING PT. OPERATIONS =  1.87E+10

     CHECK POINT   START OF SOLVER    

     CHECK POINT  END OF SOLVER       

       ELAPSED USER TIME (SEC)      =   7.9000    
       ELAPSED SYSTEM TIME (SEC)    =  0.10000    
       ELAPSED TOTAL CPU TIME (SEC) =   8.0000    
       ELAPSED WALLCLOCK TIME (SEC) =          8

               CONVERGENCE CHECKS FOR EQUILIBRIUM ITERATION     3

   MAX. PENETRATION ERROR 1.18484E-15 AT NODE PART-1-1.716 OF CONTACT PAIR 
   (ASSEMBLY_S_SURF-23,ASSEMBLY_M_SURF-23)
   MAX. CONTACT FORCE ERROR 34.1946E-09  AT NODE PART-1-1.716 OF CONTACT PAIR 
   (ASSEMBLY_S_SURF-23,ASSEMBLY_M_SURF-23)
          THE CONTACT CONSTRAINTS HAVE CONVERGED.

 AVERAGE FORCE                       105.       TIME AVG. FORCE        43.9    
 LARGEST RESIDUAL FORCE             -2.07       AT NODE       1205   DOF  3
   INSTANCE: PART-2-1                                                                        
 LARGEST INCREMENT OF DISP.        -5.876E-06   AT NODE       1079   DOF  2
   INSTANCE: PART-2-1                                                                        
 LARGEST CORRECTION TO DISP.        1.816E-09   AT NODE       1205   DOF  3
   INSTANCE: PART-2-1                                                                        
          FORCE     EQUILIBRIUM NOT ACHIEVED WITHIN TOLERANCE.

  NUMBER OF EQUATIONS =     22656     NUMBER OF RHS =    1
  NUMBER OF FLOATING PT. OPERATIONS =  1.87E+10

     CHECK POINT   START OF SOLVER    

     CHECK POINT  END OF SOLVER       

       ELAPSED USER TIME (SEC)      =   7.4000    
       ELAPSED SYSTEM TIME (SEC)    =   0.0000    
       ELAPSED TOTAL CPU TIME (SEC) =   7.4000    
       ELAPSED WALLCLOCK TIME (SEC) =          7

               CONVERGENCE CHECKS FOR EQUILIBRIUM ITERATION     4

   MAX. PENETRATION ERROR -1.46805E-15 AT NODE PART-1-1.717 OF CONTACT PAIR 
   (ASSEMBLY_S_SURF-23,ASSEMBLY_M_SURF-23)
   MAX. CONTACT FORCE ERROR -42.3682E-09  AT NODE PART-1-1.717 OF CONTACT PAIR 
   (ASSEMBLY_S_SURF-23,ASSEMBLY_M_SURF-23)
          THE CONTACT CONSTRAINTS HAVE CONVERGED.

 AVERAGE FORCE                       105.       TIME AVG. FORCE        43.9    
 LARGEST RESIDUAL FORCE              2.09       AT NODE       1205   DOF  3
   INSTANCE: PART-2-1                                                                        
 LARGEST INCREMENT OF DISP.        -5.877E-06   AT NODE       1079   DOF  2
   INSTANCE: PART-2-1                                                                        
 LARGEST CORRECTION TO DISP.        2.307E-09   AT NODE        185   DOF  3
   INSTANCE: PART-2-1                                                                        
          FORCE     EQUILIBRIUM NOT ACHIEVED WITHIN TOLERANCE.
 

 ***NOTE: THE SOLUTION APPEARS TO BE DIVERGING. CONVERGENCE IS JUDGED UNLIKELY.


  INCREMENT     9 STARTS. ATTEMPT NUMBER  2, TIME INCREMENT  1.068E-02

                    8 SEVERE DISCONTINUITIES OCCURRED DURING INCREMENT ATTEMPT INITIALIZATION.
                    8 POINTS CHANGED TO SLIPPING WITH NEGATIVE CPRESS

  NUMBER OF EQUATIONS =     22656     NUMBER OF RHS =    1
  NUMBER OF FLOATING PT. OPERATIONS =  1.87E+10

     CHECK POINT   START OF SOLVER    

     CHECK POINT  END OF SOLVER       

       ELAPSED USER TIME (SEC)      =   7.3000    
       ELAPSED SYSTEM TIME (SEC)    =  0.10000    
       ELAPSED TOTAL CPU TIME (SEC) =   7.4000    
       ELAPSED WALLCLOCK TIME (SEC) =          7

                   24 SEVERE DISCONTINUITIES OCCURRED DURING THIS ITERATION.
                    8 POINTS CHANGED FROM OPEN TO CLOSED
                   16 POINTS CHANGED FROM CLOSED TO OPEN

               CONVERGENCE CHECKS FOR SEVERE DISCONTINUITY ITERATION     1

   MAX. PENETRATION ERROR 25.6114E-12  AT NODE PART-1-1.524 OF CONTACT PAIR 
   (ASSEMBLY_S_SURF-23,ASSEMBLY_M_SURF-23)
   MAX. CONTACT FORCE ERROR -9.08890E-03 AT NODE PART-1-1.535 OF CONTACT PAIR 
   (ASSEMBLY_S_SURF-23,ASSEMBLY_M_SURF-23)
          THE CONTACT CONSTRAINT ERRORS ARE WITHIN THE TOLERANCES.

 AVERAGE FORCE                       88.1       TIME AVG. FORCE        42.0    
 LARGEST RESIDUAL FORCE             -14.2       AT NODE       4935   DOF  3
   INSTANCE: PART-2-1                                                                        
 LARGEST INCREMENT OF DISP.        -1.404E-06   AT NODE       1080   DOF  2
   INSTANCE: PART-2-1                                                                        
 LARGEST CORRECTION TO DISP.       -7.383E-08   AT NODE       1078   DOF  2
   INSTANCE: PART-2-1                                                                        
          FORCE     EQUILIBRIUM NOT ACHIEVED WITHIN TOLERANCE.

  NUMBER OF EQUATIONS =     22656     NUMBER OF RHS =    1
  NUMBER OF FLOATING PT. OPERATIONS =  1.87E+10

     CHECK POINT   START OF SOLVER    

     CHECK POINT  END OF SOLVER       

       ELAPSED USER TIME (SEC)      =   7.5000    
       ELAPSED SYSTEM TIME (SEC)    =   0.0000    
       ELAPSED TOTAL CPU TIME (SEC) =   7.5000    
       ELAPSED WALLCLOCK TIME (SEC) =          7

                    8 SEVERE DISCONTINUITIES OCCURRED DURING THIS ITERATION.
                    8 POINTS CHANGED FROM OPEN TO CLOSED

               CONVERGENCE CHECKS FOR SEVERE DISCONTINUITY ITERATION     2

   MAX. PENETRATION ERROR 244.670E-15   AT NODE PART-1-1.523 OF CONTACT PAIR 
   (ASSEMBLY_S_SURF-23,ASSEMBLY_M_SURF-23)
   MAX. CONTACT FORCE ERROR 7.41426E-06 AT NODE PART-1-1.523 OF CONTACT PAIR 
   (ASSEMBLY_S_SURF-23,ASSEMBLY_M_SURF-23)
          THE CONTACT CONSTRAINT ERRORS ARE WITHIN THE TOLERANCES.

 AVERAGE FORCE                       88.1       TIME AVG. FORCE        42.0    
 LARGEST RESIDUAL FORCE            -0.802       AT NODE        771   DOF  3
   INSTANCE: PART-2-1                                                                        
 LARGEST INCREMENT OF DISP.        -1.407E-06   AT NODE       1080   DOF  2
   INSTANCE: PART-2-1                                                                        
 LARGEST CORRECTION TO DISP.       -4.324E-09   AT NODE       4935   DOF  3
   INSTANCE: PART-2-1                                                                        
          FORCE     EQUILIBRIUM NOT ACHIEVED WITHIN TOLERANCE.

  NUMBER OF EQUATIONS =     22656     NUMBER OF RHS =    1
  NUMBER OF FLOATING PT. OPERATIONS =  1.87E+10

     CHECK POINT   START OF SOLVER    

     CHECK POINT  END OF SOLVER       

       ELAPSED USER TIME (SEC)      =   7.4000    
       ELAPSED SYSTEM TIME (SEC)    =   0.0000    
       ELAPSED TOTAL CPU TIME (SEC) =   7.4000    
       ELAPSED WALLCLOCK TIME (SEC) =          7

               CONVERGENCE CHECKS FOR EQUILIBRIUM ITERATION     1

   MAX. PENETRATION ERROR -1.03029E-15 AT NODE PART-1-1.1601 OF CONTACT PAIR 
   (ASSEMBLY_S_SURF-23,ASSEMBLY_M_SURF-23)
   MAX. CONTACT FORCE ERROR -34.4630E-09  AT NODE PART-1-1.1300 OF CONTACT PAIR 
   (ASSEMBLY_S_SURF-23,ASSEMBLY_M_SURF-23)
          THE CONTACT CONSTRAINTS HAVE CONVERGED.

 AVERAGE FORCE                       88.1       TIME AVG. FORCE        42.0    
 LARGEST RESIDUAL FORCE             1.268E-02   AT NODE       4179   DOF  2
   INSTANCE: PART-2-1                                                                        
 LARGEST INCREMENT OF DISP.        -1.407E-06   AT NODE       1080   DOF  2
   INSTANCE: PART-2-1                                                                        
 LARGEST CORRECTION TO DISP.        4.765E-10   AT NODE       2710   DOF  3
   INSTANCE: PART-2-1                                                                        
          THE FORCE     EQUILIBRIUM EQUATIONS HAVE CONVERGED
          TIME INCREMENT MAY NOW INCREASE TO    1.602E-02

 ITERATION SUMMARY FOR THE INCREMENT:   3 TOTAL ITERATIONS, OF WHICH
   2 ARE SEVERE DISCONTINUITY ITERATIONS AND  1 ARE EQUILIBRIUM ITERATIONS.

 TIME INCREMENT COMPLETED  1.068E-02,  FRACTION OF STEP COMPLETED  0.200    
 STEP TIME COMPLETED       0.200    ,  TOTAL TIME COMPLETED        0.200    


  INCREMENT    10 STARTS. ATTEMPT NUMBER  1, TIME INCREMENT  1.602E-02

                   32 SEVERE DISCONTINUITIES OCCURRED DURING INCREMENT ATTEMPT INITIALIZATION.
                   32 POINTS CHANGED TO SLIPPING WITH NEGATIVE CPRESS

  NUMBER OF EQUATIONS =     22656     NUMBER OF RHS =    1
  NUMBER OF FLOATING PT. OPERATIONS =  1.87E+10

     CHECK POINT   START OF SOLVER    

     CHECK POINT  END OF SOLVER       

       ELAPSED USER TIME (SEC)      =   7.4000    
       ELAPSED SYSTEM TIME (SEC)    =  0.10000    
       ELAPSED TOTAL CPU TIME (SEC) =   7.5000    
       ELAPSED WALLCLOCK TIME (SEC) =          8

                   40 SEVERE DISCONTINUITIES OCCURRED DURING THIS ITERATION.
                    8 POINTS CHANGED FROM OPEN TO CLOSED
                   24 POINTS CHANGED FROM CLOSED TO OPEN
                    8 POINTS CHANGED FROM SLIPPING TO STICKING

               CONVERGENCE CHECKS FOR SEVERE DISCONTINUITY ITERATION     1

   MAX. PENETRATION ERROR 20.3052E-12  AT NODE PART-1-1.391 OF CONTACT PAIR 
   (ASSEMBLY_S_SURF-23,ASSEMBLY_M_SURF-23)
   MAX. CONTACT FORCE ERROR -266.859E-03   AT NODE PART-1-1.1082 OF CONTACT 
   PAIR (ASSEMBLY_S_SURF-23,ASSEMBLY_M_SURF-23)
          THE CONTACT CONSTRAINT ERRORS ARE WITHIN THE TOLERANCES.

 AVERAGE FORCE                       96.6       TIME AVG. FORCE        47.5    
 LARGEST RESIDUAL FORCE              16.9       AT NODE       1644   DOF  3
   INSTANCE: PART-2-1                                                                        
 LARGEST INCREMENT OF DISP.        -2.178E-06   AT NODE       1079   DOF  2
   INSTANCE: PART-2-1                                                                        
 LARGEST CORRECTION TO DISP.       -1.194E-07   AT NODE        422   DOF  3
   INSTANCE: PART-1-1                                                                        
          FORCE     EQUILIBRIUM NOT ACHIEVED WITHIN TOLERANCE.

  NUMBER OF EQUATIONS =     22656     NUMBER OF RHS =    1
  NUMBER OF FLOATING PT. OPERATIONS =  1.87E+10

     CHECK POINT   START OF SOLVER    

     CHECK POINT  END OF SOLVER       

       ELAPSED USER TIME (SEC)      =   7.5000    
       ELAPSED SYSTEM TIME (SEC)    =  0.10000    
       ELAPSED TOTAL CPU TIME (SEC) =   7.6000    
       ELAPSED WALLCLOCK TIME (SEC) =          8

               CONVERGENCE CHECKS FOR EQUILIBRIUM ITERATION     1

   MAX. PENETRATION ERROR -1.08195E-15 AT NODE PART-1-1.1330 OF CONTACT PAIR 
   (ASSEMBLY_S_SURF-23,ASSEMBLY_M_SURF-23)
   MAX. CONTACT FORCE ERROR -39.1616E-09  AT NODE PART-1-1.1330 OF CONTACT PAIR 
   (ASSEMBLY_S_SURF-23,ASSEMBLY_M_SURF-23)
          THE CONTACT CONSTRAINTS HAVE CONVERGED.

 AVERAGE FORCE                       96.6       TIME AVG. FORCE        47.5    
 LARGEST RESIDUAL FORCE             -3.98       AT NODE       4654   DOF  1
   INSTANCE: PART-2-1                                                                        
 LARGEST INCREMENT OF DISP.        -2.183E-06   AT NODE       1079   DOF  2
   INSTANCE: PART-2-1                                                                        
 LARGEST CORRECTION TO DISP.        8.989E-09   AT NODE         59   DOF  3
   INSTANCE: PART-2-1                                                                        
          FORCE     EQUILIBRIUM NOT ACHIEVED WITHIN TOLERANCE.

  NUMBER OF EQUATIONS =     22656     NUMBER OF RHS =    1
  NUMBER OF FLOATING PT. OPERATIONS =  1.87E+10

     CHECK POINT   START OF SOLVER    

     CHECK POINT  END OF SOLVER       

       ELAPSED USER TIME (SEC)      =   7.5000    
       ELAPSED SYSTEM TIME (SEC)    =  0.10000    
       ELAPSED TOTAL CPU TIME (SEC) =   7.6000    
       ELAPSED WALLCLOCK TIME (SEC) =          8

               CONVERGENCE CHECKS FOR EQUILIBRIUM ITERATION     2

   MAX. PENETRATION ERROR 972.385E-18   AT NODE PART-1-1.1330 OF CONTACT PAIR 
   (ASSEMBLY_S_SURF-23,ASSEMBLY_M_SURF-23)
   MAX. CONTACT FORCE ERROR 35.1958E-09  AT NODE PART-1-1.1330 OF CONTACT PAIR 
   (ASSEMBLY_S_SURF-23,ASSEMBLY_M_SURF-23)
          THE CONTACT CONSTRAINTS HAVE CONVERGED.

 AVERAGE FORCE                       96.7       TIME AVG. FORCE        47.5    
 LARGEST RESIDUAL FORCE             0.111       AT NODE       3409   DOF  3
   INSTANCE: PART-2-1                                                                        
 LARGEST INCREMENT OF DISP.        -2.183E-06   AT NODE       1079   DOF  2
   INSTANCE: PART-2-1                                                                        
 LARGEST CORRECTION TO DISP.       -3.601E-09   AT NODE       1243   DOF  3
   INSTANCE: PART-2-1                                                                        
          THE FORCE     EQUILIBRIUM EQUATIONS HAVE CONVERGED
          TIME INCREMENT MAY NOW INCREASE TO    2.403E-02

 ITERATION SUMMARY FOR THE INCREMENT:   3 TOTAL ITERATIONS, OF WHICH
   1 ARE SEVERE DISCONTINUITY ITERATIONS AND  2 ARE EQUILIBRIUM ITERATIONS.

 TIME INCREMENT COMPLETED  1.602E-02,  FRACTION OF STEP COMPLETED  0.216    
 STEP TIME COMPLETED       0.216    ,  TOTAL TIME COMPLETED        0.216    


  INCREMENT    11 STARTS. ATTEMPT NUMBER  1, TIME INCREMENT  2.403E-02

  NUMBER OF EQUATIONS =     22656     NUMBER OF RHS =    1
  NUMBER OF FLOATING PT. OPERATIONS =  1.87E+10

     CHECK POINT   START OF SOLVER    

     CHECK POINT  END OF SOLVER       

       ELAPSED USER TIME (SEC)      =   7.6000    
       ELAPSED SYSTEM TIME (SEC)    =   0.0000    
       ELAPSED TOTAL CPU TIME (SEC) =   7.6000    
       ELAPSED WALLCLOCK TIME (SEC) =          8

                   16 SEVERE DISCONTINUITIES OCCURRED DURING THIS ITERATION.
                   16 POINTS CHANGED FROM OPEN TO CLOSED

               CONVERGENCE CHECKS FOR SEVERE DISCONTINUITY ITERATION     1

   MAX. PENETRATION ERROR 636.487E-12   AT NODE PART-1-1.1091 OF CONTACT PAIR 
   (ASSEMBLY_S_SURF-23,ASSEMBLY_M_SURF-23)
   MAX. CONTACT FORCE ERROR 24.1094E-03  AT NODE PART-1-1.1091 OF CONTACT PAIR 
   (ASSEMBLY_S_SURF-23,ASSEMBLY_M_SURF-23)
          THE CONTACT CONSTRAINT ERRORS ARE WITHIN THE TOLERANCES.

 AVERAGE FORCE                       110.       TIME AVG. FORCE        53.2    
 LARGEST RESIDUAL FORCE             -5.01       AT NODE       3972   DOF  2
   INSTANCE: PART-2-1                                                                        
 LARGEST INCREMENT OF DISP.        -3.438E-06   AT NODE       1079   DOF  2
   INSTANCE: PART-2-1                                                                        
 LARGEST CORRECTION TO DISP.       -1.841E-07   AT NODE       1078   DOF  2
   INSTANCE: PART-2-1                                                                        
          FORCE     EQUILIBRIUM NOT ACHIEVED WITHIN TOLERANCE.

  NUMBER OF EQUATIONS =     22656     NUMBER OF RHS =    1
  NUMBER OF FLOATING PT. OPERATIONS =  1.87E+10

     CHECK POINT   START OF SOLVER    

     CHECK POINT  END OF SOLVER       

       ELAPSED USER TIME (SEC)      =   7.4000    
       ELAPSED SYSTEM TIME (SEC)    =   0.0000    
       ELAPSED TOTAL CPU TIME (SEC) =   7.4000    
       ELAPSED WALLCLOCK TIME (SEC) =          8

               CONVERGENCE CHECKS FOR EQUILIBRIUM ITERATION     1

   MAX. PENETRATION ERROR 1.22109E-15 AT NODE PART-1-1.1038 OF CONTACT PAIR 
   (ASSEMBLY_S_SURF-23,ASSEMBLY_M_SURF-23)
   MAX. CONTACT FORCE ERROR 46.2535E-09  AT NODE PART-1-1.1038 OF CONTACT PAIR 
   (ASSEMBLY_S_SURF-23,ASSEMBLY_M_SURF-23)
          THE CONTACT CONSTRAINTS HAVE CONVERGED.

 AVERAGE FORCE                       110.       TIME AVG. FORCE        53.1    
 LARGEST RESIDUAL FORCE             0.400       AT NODE       3115   DOF  3
   INSTANCE: PART-2-1                                                                        
 LARGEST INCREMENT OF DISP.        -3.445E-06   AT NODE       1079   DOF  2
   INSTANCE: PART-2-1                                                                        
 LARGEST CORRECTION TO DISP.       -1.100E-08   AT NODE        412   DOF  2
   INSTANCE: PART-2-1                                                                        
          FORCE     EQUILIBRIUM NOT ACHIEVED WITHIN TOLERANCE.

  NUMBER OF EQUATIONS =     22656     NUMBER OF RHS =    1
  NUMBER OF FLOATING PT. OPERATIONS =  1.87E+10

     CHECK POINT   START OF SOLVER    

     CHECK POINT  END OF SOLVER       

       ELAPSED USER TIME (SEC)      =   7.4000    
       ELAPSED SYSTEM TIME (SEC)    =   0.0000    
       ELAPSED TOTAL CPU TIME (SEC) =   7.4000    
       ELAPSED WALLCLOCK TIME (SEC) =          8

               CONVERGENCE CHECKS FOR EQUILIBRIUM ITERATION     2

   MAX. PENETRATION ERROR -899.857E-18   AT NODE PART-1-1.1051 OF CONTACT PAIR 
   (ASSEMBLY_S_SURF-23,ASSEMBLY_M_SURF-23)
   MAX. CONTACT FORCE ERROR -31.8131E-09  AT NODE PART-1-1.1051 OF CONTACT PAIR 
   (ASSEMBLY_S_SURF-23,ASSEMBLY_M_SURF-23)
          THE CONTACT CONSTRAINTS HAVE CONVERGED.

 AVERAGE FORCE                       110.       TIME AVG. FORCE        53.1    
 LARGEST RESIDUAL FORCE            -0.391       AT NODE       3115   DOF  3
   INSTANCE: PART-2-1                                                                        
 LARGEST INCREMENT OF DISP.        -3.445E-06   AT NODE       1079   DOF  2
   INSTANCE: PART-2-1                                                                        
 LARGEST CORRECTION TO DISP.       -4.086E-10   AT NODE       3203   DOF  2
   INSTANCE: PART-2-1                                                                        
          FORCE     EQUILIBRIUM NOT ACHIEVED WITHIN TOLERANCE.

  NUMBER OF EQUATIONS =     22656     NUMBER OF RHS =    1
  NUMBER OF FLOATING PT. OPERATIONS =  1.87E+10

     CHECK POINT   START OF SOLVER    

     CHECK POINT  END OF SOLVER       

       ELAPSED USER TIME (SEC)      =   7.3000    
       ELAPSED SYSTEM TIME (SEC)    =  0.10000    
       ELAPSED TOTAL CPU TIME (SEC) =   7.4000    
       ELAPSED WALLCLOCK TIME (SEC) =          7

               CONVERGENCE CHECKS FOR EQUILIBRIUM ITERATION     3

   MAX. PENETRATION ERROR 1.15557E-15 AT NODE PART-1-1.1680 OF CONTACT PAIR 
   (ASSEMBLY_S_SURF-23,ASSEMBLY_M_SURF-23)
   MAX. CONTACT FORCE ERROR 33.5680E-09  AT NODE PART-1-1.1549 OF CONTACT PAIR 
   (ASSEMBLY_S_SURF-23,ASSEMBLY_M_SURF-23)
          THE CONTACT CONSTRAINTS HAVE CONVERGED.

 AVERAGE FORCE                       110.       TIME AVG. FORCE        53.1    
 LARGEST RESIDUAL FORCE             0.392       AT NODE       3115   DOF  3
   INSTANCE: PART-2-1                                                                        
 LARGEST INCREMENT OF DISP.        -3.445E-06   AT NODE       1079   DOF  2
   INSTANCE: PART-2-1                                                                        
 LARGEST CORRECTION TO DISP.        4.211E-10   AT NODE       3203   DOF  2
   INSTANCE: PART-2-1                                                                        
          FORCE     EQUILIBRIUM NOT ACHIEVED WITHIN TOLERANCE.

  NUMBER OF EQUATIONS =     22656     NUMBER OF RHS =    1
  NUMBER OF FLOATING PT. OPERATIONS =  1.87E+10

     CHECK POINT   START OF SOLVER    

     CHECK POINT  END OF SOLVER       

       ELAPSED USER TIME (SEC)      =   7.5000    
       ELAPSED SYSTEM TIME (SEC)    =   0.0000    
       ELAPSED TOTAL CPU TIME (SEC) =   7.5000    
       ELAPSED WALLCLOCK TIME (SEC) =          8

               CONVERGENCE CHECKS FOR EQUILIBRIUM ITERATION     4

   MAX. PENETRATION ERROR -1.34554E-15 AT NODE PART-1-1.1097 OF CONTACT PAIR 
   (ASSEMBLY_S_SURF-23,ASSEMBLY_M_SURF-23)
   MAX. CONTACT FORCE ERROR -43.0390E-09  AT NODE PART-1-1.1097 OF CONTACT PAIR 
   (ASSEMBLY_S_SURF-23,ASSEMBLY_M_SURF-23)
          THE CONTACT CONSTRAINTS HAVE CONVERGED.

 AVERAGE FORCE                       110.       TIME AVG. FORCE        53.1    
 LARGEST RESIDUAL FORCE            -0.391       AT NODE       3115   DOF  3
   INSTANCE: PART-2-1                                                                        
 LARGEST INCREMENT OF DISP.        -3.445E-06   AT NODE       1079   DOF  2
   INSTANCE: PART-2-1                                                                        
 LARGEST CORRECTION TO DISP.       -4.212E-10   AT NODE       3203   DOF  2
   INSTANCE: PART-2-1                                                                        
          FORCE     EQUILIBRIUM NOT ACHIEVED WITHIN TOLERANCE.
 

 ***NOTE: THE SOLUTION APPEARS TO BE DIVERGING. CONVERGENCE IS JUDGED UNLIKELY.


  INCREMENT    11 STARTS. ATTEMPT NUMBER  2, TIME INCREMENT  6.007E-03

  NUMBER OF EQUATIONS =     22656     NUMBER OF RHS =    1
  NUMBER OF FLOATING PT. OPERATIONS =  1.87E+10

     CHECK POINT   START OF SOLVER    

     CHECK POINT  END OF SOLVER       

       ELAPSED USER TIME (SEC)      =   7.5000    
       ELAPSED SYSTEM TIME (SEC)    =   0.0000    
       ELAPSED TOTAL CPU TIME (SEC) =   7.5000    
       ELAPSED WALLCLOCK TIME (SEC) =          8

               CONVERGENCE CHECKS FOR EQUILIBRIUM ITERATION     1

   MAX. PENETRATION ERROR -1.07682E-15 AT NODE PART-1-1.1711 OF CONTACT PAIR 
   (ASSEMBLY_S_SURF-23,ASSEMBLY_M_SURF-23)
   MAX. CONTACT FORCE ERROR -36.2568E-09  AT NODE PART-1-1.1711 OF CONTACT PAIR 
   (ASSEMBLY_S_SURF-23,ASSEMBLY_M_SURF-23)
          THE CONTACT CONSTRAINTS HAVE CONVERGED.

 AVERAGE FORCE                       100.       TIME AVG. FORCE        52.3    
 LARGEST RESIDUAL FORCE              1.02       AT NODE       4008   DOF  1
   INSTANCE: PART-2-1                                                                        
 LARGEST INCREMENT OF DISP.        -8.364E-07   AT NODE       1079   DOF  2
   INSTANCE: PART-2-1                                                                        
 LARGEST CORRECTION TO DISP.       -1.996E-08   AT NODE       1078   DOF  2
   INSTANCE: PART-2-1                                                                        
          FORCE     EQUILIBRIUM NOT ACHIEVED WITHIN TOLERANCE.

  NUMBER OF EQUATIONS =     22656     NUMBER OF RHS =    1
  NUMBER OF FLOATING PT. OPERATIONS =  1.87E+10

     CHECK POINT   START OF SOLVER    

     CHECK POINT  END OF SOLVER       

       ELAPSED USER TIME (SEC)      =   7.5000    
       ELAPSED SYSTEM TIME (SEC)    =   0.0000    
       ELAPSED TOTAL CPU TIME (SEC) =   7.5000    
       ELAPSED WALLCLOCK TIME (SEC) =          7

               CONVERGENCE CHECKS FOR EQUILIBRIUM ITERATION     2

   MAX. PENETRATION ERROR 1.08023E-15 AT NODE PART-1-1.703 OF CONTACT PAIR 
   (ASSEMBLY_S_SURF-23,ASSEMBLY_M_SURF-23)
   MAX. CONTACT FORCE ERROR 36.3713E-09  AT NODE PART-1-1.703 OF CONTACT PAIR 
   (ASSEMBLY_S_SURF-23,ASSEMBLY_M_SURF-23)
          THE CONTACT CONSTRAINTS HAVE CONVERGED.

 AVERAGE FORCE                       100.       TIME AVG. FORCE        52.3    
 LARGEST RESIDUAL FORCE            -3.485E-02   AT NODE       3418   DOF  3
   INSTANCE: PART-2-1                                                                        
 LARGEST INCREMENT OF DISP.        -8.366E-07   AT NODE       1074   DOF  2
   INSTANCE: PART-2-1                                                                        
 LARGEST CORRECTION TO DISP.        4.588E-10   AT NODE        411   DOF  1
   INSTANCE: PART-2-1                                                                        
          THE FORCE     EQUILIBRIUM EQUATIONS HAVE CONVERGED
          TIME INCREMENT MAY NOW INCREASE TO    9.010E-03

 ITERATION SUMMARY FOR THE INCREMENT:   2 TOTAL ITERATIONS, OF WHICH
   0 ARE SEVERE DISCONTINUITY ITERATIONS AND  2 ARE EQUILIBRIUM ITERATIONS.

 TIME INCREMENT COMPLETED  6.007E-03,  FRACTION OF STEP COMPLETED  0.222    
 STEP TIME COMPLETED       0.222    ,  TOTAL TIME COMPLETED        0.222    


[...]

  NUMBER OF EQUATIONS =     22656     NUMBER OF RHS =    1
  NUMBER OF FLOATING PT. OPERATIONS =  1.87E+10

     CHECK POINT   START OF SOLVER    

     CHECK POINT  END OF SOLVER       

       ELAPSED USER TIME (SEC)      =   7.5000    
       ELAPSED SYSTEM TIME (SEC)    =   0.0000    
       ELAPSED TOTAL CPU TIME (SEC) =   7.5000    
       ELAPSED WALLCLOCK TIME (SEC) =          7

               CONVERGENCE CHECKS FOR EQUILIBRIUM ITERATION     2

   MAX. PENETRATION ERROR -1.10102E-15 AT NODE PART-1-1.738 OF CONTACT PAIR 
   (ASSEMBLY_S_SURF-23,ASSEMBLY_M_SURF-23)
   MAX. CONTACT FORCE ERROR -38.1733E-09  AT NODE PART-1-1.1342 OF CONTACT PAIR 
   (ASSEMBLY_S_SURF-23,ASSEMBLY_M_SURF-23)
          THE CONTACT CONSTRAINTS HAVE CONVERGED.

 AVERAGE FORCE                       297.       TIME AVG. FORCE        176.    
 LARGEST RESIDUAL FORCE            -0.135       AT NODE          5   DOF  2
   INSTANCE: PART-2-1                                                                        
 LARGEST INCREMENT OF DISP.        -2.048E-06   AT NODE       1078   DOF  2
   INSTANCE: PART-2-1                                                                        
 LARGEST CORRECTION TO DISP.       -1.821E-08   AT NODE       1078   DOF  2
   INSTANCE: PART-2-1                                                                        
          THE FORCE     EQUILIBRIUM EQUATIONS HAVE CONVERGED
          TIME INCREMENT MAY NOW INCREASE TO    5.207E-03

 ITERATION SUMMARY FOR THE INCREMENT:   2 TOTAL ITERATIONS, OF WHICH
   0 ARE SEVERE DISCONTINUITY ITERATIONS AND  2 ARE EQUILIBRIUM ITERATIONS.

 TIME INCREMENT COMPLETED  3.472E-03,  FRACTION OF STEP COMPLETED  0.524    
 STEP TIME COMPLETED       0.524    ,  TOTAL TIME COMPLETED        0.524    


  INCREMENT    38 STARTS. ATTEMPT NUMBER  1, TIME INCREMENT  5.207E-03

                    8 SEVERE DISCONTINUITIES OCCURRED DURING INCREMENT ATTEMPT INITIALIZATION.
                    8 POINTS CHANGED TO SLIPPING WITH NEGATIVE CPRESS

  NUMBER OF EQUATIONS =     22656     NUMBER OF RHS =    1
  NUMBER OF FLOATING PT. OPERATIONS =  1.87E+10

     CHECK POINT   START OF SOLVER    

     CHECK POINT  END OF SOLVER       

       ELAPSED USER TIME (SEC)      =   7.3000    
       ELAPSED SYSTEM TIME (SEC)    =   0.0000    
       ELAPSED TOTAL CPU TIME (SEC) =   7.3000    
       ELAPSED WALLCLOCK TIME (SEC) =          8

                   32 SEVERE DISCONTINUITIES OCCURRED DURING THIS ITERATION.
                   16 POINTS CHANGED FROM OPEN TO CLOSED
                    8 POINTS CHANGED FROM CLOSED TO OPEN
                    8 POINTS CHANGED FROM SLIPPING TO STICKING

               CONVERGENCE CHECKS FOR SEVERE DISCONTINUITY ITERATION     1

   MAX. PENETRATION ERROR 188.397E-12   AT NODE PART-1-1.1302 OF CONTACT PAIR 
   (ASSEMBLY_S_SURF-23,ASSEMBLY_M_SURF-23)
   MAX. CONTACT FORCE ERROR 6.66050E-03 AT NODE PART-1-1.1302 OF CONTACT PAIR 
   (ASSEMBLY_S_SURF-23,ASSEMBLY_M_SURF-23)
          THE CONTACT CONSTRAINT ERRORS ARE WITHIN THE TOLERANCES.

 AVERAGE FORCE                       301.       TIME AVG. FORCE        179.    
 LARGEST RESIDUAL FORCE             -22.5       AT NODE         21   DOF  3
   INSTANCE: PART-2-1                                                                        
 LARGEST INCREMENT OF DISP.        -3.917E-06   AT NODE       1078   DOF  2
   INSTANCE: PART-2-1                                                                        
 LARGEST CORRECTION TO DISP.       -8.446E-07   AT NODE       1078   DOF  2
   INSTANCE: PART-2-1                                                                        
          FORCE     EQUILIBRIUM NOT ACHIEVED WITHIN TOLERANCE.

  NUMBER OF EQUATIONS =     22656     NUMBER OF RHS =    1
  NUMBER OF FLOATING PT. OPERATIONS =  1.87E+10

     CHECK POINT   START OF SOLVER    

     CHECK POINT  END OF SOLVER       

       ELAPSED USER TIME (SEC)      =   7.4000    
       ELAPSED SYSTEM TIME (SEC)    =   0.0000    
       ELAPSED TOTAL CPU TIME (SEC) =   7.4000    
       ELAPSED WALLCLOCK TIME (SEC) =          8

               CONVERGENCE CHECKS FOR EQUILIBRIUM ITERATION     1

   MAX. PENETRATION ERROR -1.53035E-15 AT NODE PART-1-1.1332 OF CONTACT PAIR 
   (ASSEMBLY_S_SURF-23,ASSEMBLY_M_SURF-23)
   MAX. CONTACT FORCE ERROR -46.3744E-09  AT NODE PART-1-1.1332 OF CONTACT PAIR 
   (ASSEMBLY_S_SURF-23,ASSEMBLY_M_SURF-23)
          THE CONTACT CONSTRAINTS HAVE CONVERGED.

 AVERAGE FORCE                       301.       TIME AVG. FORCE        179.    
 LARGEST RESIDUAL FORCE             -11.5       AT NODE       2131   DOF  1
   INSTANCE: PART-2-1                                                                        
 LARGEST INCREMENT OF DISP.        -4.086E-06   AT NODE       1078   DOF  2
   INSTANCE: PART-2-1                                                                        
 LARGEST CORRECTION TO DISP.       -1.687E-07   AT NODE       1078   DOF  2
   INSTANCE: PART-2-1                                                                        
          FORCE     EQUILIBRIUM NOT ACHIEVED WITHIN TOLERANCE.

  NUMBER OF EQUATIONS =     22656     NUMBER OF RHS =    1
  NUMBER OF FLOATING PT. OPERATIONS =  1.87E+10

     CHECK POINT   START OF SOLVER    

     CHECK POINT  END OF SOLVER       

       ELAPSED USER TIME (SEC)      =   7.2000    
       ELAPSED SYSTEM TIME (SEC)    =  0.10000    
       ELAPSED TOTAL CPU TIME (SEC) =   7.3000    
       ELAPSED WALLCLOCK TIME (SEC) =          8

               CONVERGENCE CHECKS FOR EQUILIBRIUM ITERATION     2

   MAX. PENETRATION ERROR 1.33174E-15 AT NODE PART-1-1.1332 OF CONTACT PAIR 
   (ASSEMBLY_S_SURF-23,ASSEMBLY_M_SURF-23)
   MAX. CONTACT FORCE ERROR 40.3556E-09  AT NODE PART-1-1.1332 OF CONTACT PAIR 
   (ASSEMBLY_S_SURF-23,ASSEMBLY_M_SURF-23)
          THE CONTACT CONSTRAINTS HAVE CONVERGED.

 AVERAGE FORCE                       301.       TIME AVG. FORCE        179.    
 LARGEST RESIDUAL FORCE            -0.101       AT NODE       3488   DOF  2
   INSTANCE: PART-2-1                                                                        
 LARGEST INCREMENT OF DISP.        -4.096E-06   AT NODE       1078   DOF  2
   INSTANCE: PART-2-1                                                                        
 LARGEST CORRECTION TO DISP.       -1.045E-08   AT NODE       1078   DOF  2
   INSTANCE: PART-2-1                                                                        
          THE FORCE     EQUILIBRIUM EQUATIONS HAVE CONVERGED
          TIME INCREMENT MAY NOW INCREASE TO    7.811E-03

 ITERATION SUMMARY FOR THE INCREMENT:   3 TOTAL ITERATIONS, OF WHICH
   1 ARE SEVERE DISCONTINUITY ITERATIONS AND  2 ARE EQUILIBRIUM ITERATIONS.

 TIME INCREMENT COMPLETED  5.207E-03,  FRACTION OF STEP COMPLETED  0.529    
 STEP TIME COMPLETED       0.529    ,  TOTAL TIME COMPLETED        0.529    


  INCREMENT    39 STARTS. ATTEMPT NUMBER  1, TIME INCREMENT  7.811E-03

                   24 SEVERE DISCONTINUITIES OCCURRED DURING INCREMENT ATTEMPT INITIALIZATION.
                   24 POINTS CHANGED TO SLIPPING WITH NEGATIVE CPRESS

  NUMBER OF EQUATIONS =     22656     NUMBER OF RHS =    1
  NUMBER OF FLOATING PT. OPERATIONS =  1.87E+10

     CHECK POINT   START OF SOLVER    

     CHECK POINT  END OF SOLVER       

       ELAPSED USER TIME (SEC)      =   7.3000    
       ELAPSED SYSTEM TIME (SEC)    =   0.0000    
       ELAPSED TOTAL CPU TIME (SEC) =   7.3000    
       ELAPSED WALLCLOCK TIME (SEC) =          8

                   44 SEVERE DISCONTINUITIES OCCURRED DURING THIS ITERATION.
                   16 POINTS CHANGED FROM OPEN TO CLOSED
                   20 POINTS CHANGED FROM CLOSED TO OPEN
                    8 POINTS CHANGED FROM SLIPPING TO STICKING

               CONVERGENCE CHECKS FOR SEVERE DISCONTINUITY ITERATION     1

   MAX. PENETRATION ERROR 608.637E-12   AT NODE PART-1-1.1598 OF CONTACT PAIR 
   (ASSEMBLY_S_SURF-23,ASSEMBLY_M_SURF-23)
   MAX. CONTACT FORCE ERROR -242.150E-03   AT NODE PART-1-1.1313 OF CONTACT 
   PAIR (ASSEMBLY_S_SURF-23,ASSEMBLY_M_SURF-23)
          THE CONTACT CONSTRAINT ERRORS ARE WITHIN THE TOLERANCES.

 AVERAGE FORCE                       308.       TIME AVG. FORCE        182.    
 LARGEST RESIDUAL FORCE              111.       AT NODE       3818   DOF  1
   INSTANCE: PART-2-1                                                                        
 LARGEST INCREMENT OF DISP.        -1.373E-05   AT NODE       1078   DOF  2
   INSTANCE: PART-2-1                                                                        
 LARGEST CORRECTION TO DISP.       -7.637E-06   AT NODE       1074   DOF  2
   INSTANCE: PART-2-1                                                                        
          FORCE     EQUILIBRIUM NOT ACHIEVED WITHIN TOLERANCE.

  NUMBER OF EQUATIONS =     22656     NUMBER OF RHS =    1
  NUMBER OF FLOATING PT. OPERATIONS =  1.87E+10

     CHECK POINT   START OF SOLVER    

     CHECK POINT  END OF SOLVER       

       ELAPSED USER TIME (SEC)      =   7.3000    
       ELAPSED SYSTEM TIME (SEC)    =   0.0000    
       ELAPSED TOTAL CPU TIME (SEC) =   7.3000    
       ELAPSED WALLCLOCK TIME (SEC) =          7

                   24 SEVERE DISCONTINUITIES OCCURRED DURING THIS ITERATION.
                   16 POINTS CHANGED FROM OPEN TO CLOSED
                    8 POINTS CHANGED FROM CLOSED TO OPEN

               CONVERGENCE CHECKS FOR SEVERE DISCONTINUITY ITERATION     2

   MAX. PENETRATION ERROR 80.7066E-12  AT NODE PART-1-1.539 OF CONTACT PAIR 
   (ASSEMBLY_S_SURF-23,ASSEMBLY_M_SURF-23)
   MAX. CONTACT FORCE ERROR -57.6593E-03  AT NODE PART-1-1.386 OF CONTACT PAIR 
   (ASSEMBLY_S_SURF-23,ASSEMBLY_M_SURF-23)
          THE CONTACT CONSTRAINT ERRORS ARE WITHIN THE TOLERANCES.

 AVERAGE FORCE                       308.       TIME AVG. FORCE        182.    
 LARGEST RESIDUAL FORCE             -93.5       AT NODE       4610   DOF  3
   INSTANCE: PART-2-1                                                                        
 LARGEST INCREMENT OF DISP.        -2.319E-05   AT NODE       1074   DOF  2
   INSTANCE: PART-2-1                                                                        
 LARGEST CORRECTION TO DISP.       -9.501E-06   AT NODE       1074   DOF  2
   INSTANCE: PART-2-1                                                                        
          FORCE     EQUILIBRIUM NOT ACHIEVED WITHIN TOLERANCE.

  NUMBER OF EQUATIONS =     22656     NUMBER OF RHS =    1
  NUMBER OF FLOATING PT. OPERATIONS =  1.87E+10

     CHECK POINT   START OF SOLVER    

     CHECK POINT  END OF SOLVER       

       ELAPSED USER TIME (SEC)      =   7.4000    
       ELAPSED SYSTEM TIME (SEC)    =   0.0000    
       ELAPSED TOTAL CPU TIME (SEC) =   7.4000    
       ELAPSED WALLCLOCK TIME (SEC) =          7

                   32 SEVERE DISCONTINUITIES OCCURRED DURING THIS ITERATION.
                    8 POINTS CHANGED FROM OPEN TO CLOSED
                   24 POINTS CHANGED FROM CLOSED TO OPEN

               CONVERGENCE CHECKS FOR SEVERE DISCONTINUITY ITERATION     3

   MAX. PENETRATION ERROR 118.185E-12   AT NODE PART-1-1.1324 OF CONTACT PAIR 
   (ASSEMBLY_S_SURF-23,ASSEMBLY_M_SURF-23)
   MAX. CONTACT FORCE ERROR -54.3773E-03  AT NODE PART-1-1.246 OF CONTACT PAIR 
   (ASSEMBLY_S_SURF-23,ASSEMBLY_M_SURF-23)
          THE CONTACT CONSTRAINT ERRORS ARE WITHIN THE TOLERANCES.

 AVERAGE FORCE                       309.       TIME AVG. FORCE        182.    
 LARGEST RESIDUAL FORCE             -169.       AT NODE       3157   DOF  2
   INSTANCE: PART-2-1                                                                        
 LARGEST INCREMENT OF DISP.        -5.167E-05   AT NODE       1074   DOF  2
   INSTANCE: PART-2-1                                                                        
 LARGEST CORRECTION TO DISP.       -2.848E-05   AT NODE       1074   DOF  2
   INSTANCE: PART-2-1                                                                        
          FORCE     EQUILIBRIUM NOT ACHIEVED WITHIN TOLERANCE.

  NUMBER OF EQUATIONS =     22656     NUMBER OF RHS =    1
  NUMBER OF FLOATING PT. OPERATIONS =  1.87E+10

     CHECK POINT   START OF SOLVER    

     CHECK POINT  END OF SOLVER       

       ELAPSED USER TIME (SEC)      =   7.1000    
       ELAPSED SYSTEM TIME (SEC)    =  0.10000    
       ELAPSED TOTAL CPU TIME (SEC) =   7.2000    
       ELAPSED WALLCLOCK TIME (SEC) =          8

                   28 SEVERE DISCONTINUITIES OCCURRED DURING THIS ITERATION.
                   28 POINTS CHANGED FROM OPEN TO CLOSED

               CONVERGENCE CHECKS FOR SEVERE DISCONTINUITY ITERATION     4

   MAX. PENETRATION ERROR 235.562E-12   AT NODE PART-1-1.1612 OF CONTACT PAIR 
   (ASSEMBLY_S_SURF-23,ASSEMBLY_M_SURF-23)
   MAX. CONTACT FORCE ERROR 9.71596E-03 AT NODE PART-1-1.1612 OF CONTACT PAIR 
   (ASSEMBLY_S_SURF-23,ASSEMBLY_M_SURF-23)
          THE CONTACT CONSTRAINT ERRORS ARE WITHIN THE TOLERANCES.

 AVERAGE FORCE                       309.       TIME AVG. FORCE        182.    
 LARGEST RESIDUAL FORCE             -182.       AT NODE       3886   DOF  2
   INSTANCE: PART-2-1                                                                        
 LARGEST INCREMENT OF DISP.        -6.470E-05   AT NODE       1074   DOF  2
   INSTANCE: PART-2-1                                                                        
 LARGEST CORRECTION TO DISP.       -1.303E-05   AT NODE       1080   DOF  2
   INSTANCE: PART-2-1                                                                        
          FORCE     EQUILIBRIUM NOT ACHIEVED WITHIN TOLERANCE.

  NUMBER OF EQUATIONS =     22656     NUMBER OF RHS =    1
  NUMBER OF FLOATING PT. OPERATIONS =  1.87E+10

     CHECK POINT   START OF SOLVER    

     CHECK POINT  END OF SOLVER       

       ELAPSED USER TIME (SEC)      =   7.4000    
       ELAPSED SYSTEM TIME (SEC)    =  0.10000    
       ELAPSED TOTAL CPU TIME (SEC) =   7.5000    
       ELAPSED WALLCLOCK TIME (SEC) =          8

                   28 SEVERE DISCONTINUITIES OCCURRED DURING THIS ITERATION.
                    8 POINTS CHANGED FROM OPEN TO CLOSED
                   20 POINTS CHANGED FROM CLOSED TO OPEN

               CONVERGENCE CHECKS FOR SEVERE DISCONTINUITY ITERATION     5

   MAX. PENETRATION ERROR 223.105E-12   AT NODE PART-1-1.1579 OF CONTACT PAIR 
   (ASSEMBLY_S_SURF-23,ASSEMBLY_M_SURF-23)
   MAX. CONTACT FORCE ERROR -94.7839E-03  AT NODE PART-1-1.535 OF CONTACT PAIR 
   (ASSEMBLY_S_SURF-23,ASSEMBLY_M_SURF-23)
          THE CONTACT CONSTRAINT ERRORS ARE WITHIN THE TOLERANCES.

 AVERAGE FORCE                       309.       TIME AVG. FORCE        182.    
 LARGEST RESIDUAL FORCE            -1.399E+03   AT NODE       3837   DOF  2
   INSTANCE: PART-2-1                                                                        
 LARGEST INCREMENT OF DISP.        -8.148E-05   AT NODE       1080   DOF  2
   INSTANCE: PART-2-1                                                                        
 LARGEST CORRECTION TO DISP.       -1.678E-05   AT NODE       1080   DOF  2
   INSTANCE: PART-2-1                                                                        
          FORCE     EQUILIBRIUM NOT ACHIEVED WITHIN TOLERANCE.

  NUMBER OF EQUATIONS =     22656     NUMBER OF RHS =    1
  NUMBER OF FLOATING PT. OPERATIONS =  1.87E+10

     CHECK POINT   START OF SOLVER    

     CHECK POINT  END OF SOLVER       

       ELAPSED USER TIME (SEC)      =   7.3000    
       ELAPSED SYSTEM TIME (SEC)    =  0.10000    
       ELAPSED TOTAL CPU TIME (SEC) =   7.4000    
       ELAPSED WALLCLOCK TIME (SEC) =          8

                   16 SEVERE DISCONTINUITIES OCCURRED DURING THIS ITERATION.
                   16 POINTS CHANGED FROM OPEN TO CLOSED

               CONVERGENCE CHECKS FOR SEVERE DISCONTINUITY ITERATION     6

   MAX. PENETRATION ERROR 22.5133E-12  AT NODE PART-1-1.1321 OF CONTACT PAIR 
   (ASSEMBLY_S_SURF-23,ASSEMBLY_M_SURF-23)
   MAX. CONTACT FORCE ERROR 928.578E-06   AT NODE PART-1-1.1321 OF CONTACT PAIR 
   (ASSEMBLY_S_SURF-23,ASSEMBLY_M_SURF-23)
          THE CONTACT CONSTRAINT ERRORS ARE WITHIN THE TOLERANCES.

 AVERAGE FORCE                       308.       TIME AVG. FORCE        182.    
 LARGEST RESIDUAL FORCE             -759.       AT NODE       3843   DOF  2
   INSTANCE: PART-2-1                                                                        
 LARGEST INCREMENT OF DISP.        -8.121E-05   AT NODE       1080   DOF  2
   INSTANCE: PART-2-1                                                                        
 LARGEST CORRECTION TO DISP.       -2.462E-06   AT NODE       3837   DOF  1
   INSTANCE: PART-2-1                                                                        
          FORCE     EQUILIBRIUM NOT ACHIEVED WITHIN TOLERANCE.

  NUMBER OF EQUATIONS =     22656     NUMBER OF RHS =    1
  NUMBER OF FLOATING PT. OPERATIONS =  1.87E+10

     CHECK POINT   START OF SOLVER    

     CHECK POINT  END OF SOLVER       

       ELAPSED USER TIME (SEC)      =   7.3000    
       ELAPSED SYSTEM TIME (SEC)    =  0.10000    
       ELAPSED TOTAL CPU TIME (SEC) =   7.4000    
       ELAPSED WALLCLOCK TIME (SEC) =          8

                    8 SEVERE DISCONTINUITIES OCCURRED DURING THIS ITERATION.
                    8 POINTS CHANGED FROM CLOSED TO OPEN

               CONVERGENCE CHECKS FOR SEVERE DISCONTINUITY ITERATION     7

   MAX. PENETRATION ERROR 86.7432E-15  AT NODE PART-1-1.1807 OF CONTACT PAIR 
   (ASSEMBLY_S_SURF-23,ASSEMBLY_M_SURF-23)
   MAX. CONTACT FORCE ERROR -10.0104E-03  AT NODE PART-1-1.516 OF CONTACT PAIR 
   (ASSEMBLY_S_SURF-23,ASSEMBLY_M_SURF-23)
          THE CONTACT CONSTRAINT ERRORS ARE WITHIN THE TOLERANCES.

 AVERAGE FORCE                       308.       TIME AVG. FORCE        182.    
 LARGEST RESIDUAL FORCE            -1.275E+03   AT NODE       3788   DOF  2
   INSTANCE: PART-2-1                                                                        
 LARGEST INCREMENT OF DISP.        -8.948E-05   AT NODE       1080   DOF  2
   INSTANCE: PART-2-1                                                                        
 LARGEST CORRECTION TO DISP.       -8.273E-06   AT NODE       1070   DOF  2
   INSTANCE: PART-2-1                                                                        
          FORCE     EQUILIBRIUM NOT ACHIEVED WITHIN TOLERANCE.

  NUMBER OF EQUATIONS =     22656     NUMBER OF RHS =    1
  NUMBER OF FLOATING PT. OPERATIONS =  1.87E+10

     CHECK POINT   START OF SOLVER    

     CHECK POINT  END OF SOLVER       

       ELAPSED USER TIME (SEC)      =   8.0000    
       ELAPSED SYSTEM TIME (SEC)    =  0.10000    
       ELAPSED TOTAL CPU TIME (SEC) =   8.1000    
       ELAPSED WALLCLOCK TIME (SEC) =          8

 ***ERROR: Process terminated by external request (SIGTERM or SIGINT received).



     ANALYSIS SUMMARY:
     TOTAL OF         39  INCREMENTS
                      11  CUTBACKS IN AUTOMATIC INCREMENTATION
                     164  ITERATIONS INCLUDING CONTACT ITERATIONS IF PRESENT
                     164  PASSES THROUGH THE EQUATION SOLVER OF WHICH 
                     164  INVOLVE MATRIX DECOMPOSITION, INCLUDING
                       0  DECOMPOSITION(S) OF THE MASS MATRIX
                       1  REORDERING OF EQUATIONS TO MINIMIZE WAVEFRONT
                       0  ADDITIONAL RESIDUAL EVALUATIONS FOR LINE SEARCHES
                       0  ADDITIONAL OPERATOR EVALUATIONS FOR LINE SEARCHES
                     412  WARNING MESSAGES DURING USER INPUT PROCESSING
                       0  WARNING MESSAGES DURING ANALYSIS
                       0  ANALYSIS WARNINGS ARE NUMERICAL PROBLEM MESSAGES
                       0  ANALYSIS WARNINGS ARE NEGATIVE EIGENVALUE MESSAGES
                       1  ERROR MESSAGES



     JOB TIME SUMMARY
       USER TIME (SEC)      =   2111.6    
       SYSTEM TIME (SEC)    =   16.000    
       TOTAL CPU TIME (SEC) =   2127.6    
       WALLCLOCK TIME (SEC) =       2180
