*Heading
** Job name: Job-4 Model name: Model-1
** Generated by: Abaqus/CAE 2018
*Preprint, echo=NO, model=NO, history=NO, contact=NO
**
** PARTS
**
*Part, name=M1
*End Part
**  
**
** ASSEMBLY
**
*Assembly, name=Assembly
**  
*Instance, name=M1-1, part=M1
*Node
      1,         250.,          80.,         125.
      2,         250.,           0.,         125.
      3,         250.,           0.,           0.
      4,         250.,          80.,           0.
      5,           0.,           0.,         125.
      6,           0.,           0.,           0.
      7,           0.,          80.,           0.
      8,           0.,          80.,         125.
      9,         250.,          40.,         250.
     10,         250.,           0.,         250.
     11,           0.,          40.,         250.
     12,           0.,           0.,         250.
     13,         250.,   53.3333321,         125.
     14,         250.,    26.666666,         125.
     15,         250.,           0.,    107.14286
     16,         250.,           0.,   89.2857132
     17,         250.,           0.,   71.4285736
     18,         250.,           0.,   53.5714302
     19,         250.,           0.,   35.7142868
     20,         250.,           0.,   17.8571434
** ... 820 like lines cut
*Element, type=C3D8R
  1,  68, 313, 553, 169,   1,  13, 145,  28
  2, 313, 314, 554, 553,  13,  14, 146, 145
  3, 314,  81, 241, 554,  14,   2,  15, 146
  4, 169, 553, 555, 170,  28, 145, 147,  27
  5, 553, 554, 556, 555, 145, 146, 148, 147
  6, 554, 241, 242, 556, 146,  15,  16, 148
  7, 170, 555, 557, 171,  27, 147, 149,  26
  8, 555, 556, 558, 557, 147, 148, 150, 149
  9, 556, 242, 243, 558, 148,  16,  17, 150
 10, 171, 557, 559, 172,  26, 149, 151,  25
 11, 557, 558, 560, 559, 149, 150, 152, 151
 12, 558, 243, 244, 560, 150,  17,  18, 152
 13, 172, 559, 561, 173,  25, 151, 153,  24
 14, 559, 560, 562, 561, 151, 152, 154, 153
 15, 560, 244, 245, 562, 152,  18,  19, 154
 16, 173, 561, 563, 174,  24, 153, 155,  23
 17, 561, 562, 564, 563, 153, 154, 156, 155
 18, 562, 245, 246, 564, 154,  19,  20, 156
 19, 174, 563, 337,  45,  23, 155,  22,   4
 20, 563, 564, 338, 337, 155, 156,  21,  22
** ... 526 like lines cut
*Nset, nset=Set-1, generate
   1,  840,    1
*Elset, elset=Set-1, generate
   1,  546,    1
** Section: Section-1
*Solid Section, elset=Set-1, material=Material-1
,
*End Instance
**  
*Instance, name=M1-2, part=M1
*Node
      1,         250.,          80.,         125.
      2,         250.,           0.,         125.
      3,         250.,           0.,           0.
      4,         250.,          80.,           0.
      5,           0.,           0.,         125.
      6,           0.,           0.,           0.
      7,           0.,          80.,           0.
      8,           0.,          80.,         125.
      9,         250.,          40.,         250.
     10,         250.,           0.,         250.
     11,           0.,          40.,         250.
     12,           0.,           0.,         250.
     13,         250.,   53.3333321,         125.
     14,         250.,    26.666666,         125.
     15,         250.,           0.,    107.14286
     16,         250.,           0.,   89.2857132
     17,         250.,           0.,   71.4285736
     18,         250.,           0.,   53.5714302
     19,         250.,           0.,   35.7142868
     20,         250.,           0.,   17.8571434
** ... 820 like lines cut
*Element, type=C3D8R
  1,  68, 313, 553, 169,   1,  13, 145,  28
  2, 313, 314, 554, 553,  13,  14, 146, 145
  3, 314,  81, 241, 554,  14,   2,  15, 146
  4, 169, 553, 555, 170,  28, 145, 147,  27
  5, 553, 554, 556, 555, 145, 146, 148, 147
  6, 554, 241, 242, 556, 146,  15,  16, 148
  7, 170, 555, 557, 171,  27, 147, 149,  26
  8, 555, 556, 558, 557, 147, 148, 150, 149
  9, 556, 242, 243, 558, 148,  16,  17, 150
 10, 171, 557, 559, 172,  26, 149, 151,  25
 11, 557, 558, 560, 559, 149, 150, 152, 151
 12, 558, 243, 244, 560, 150,  17,  18, 152
 13, 172, 559, 561, 173,  25, 151, 153,  24
 14, 559, 560, 562, 561, 151, 152, 154, 153
 15, 560, 244, 245, 562, 152,  18,  19, 154
 16, 173, 561, 563, 174,  24, 153, 155,  23
 17, 561, 562, 564, 563, 153, 154, 156, 155
 18, 562, 245, 246, 564, 154,  19,  20, 156
 19, 174, 563, 337,  45,  23, 155,  22,   4
 20, 563, 564, 338, 337, 155, 156,  21,  22
** ... 526 like lines cut
*Nset, nset=Set-1, generate
   1,  840,    1
*Elset, elset=Set-1, generate
   1,  546,    1
** Section: Section-1
*Solid Section, elset=Set-1, material=Material-1
,
*End Instance
**  
*Instance, name=M1-3, part=M1
*Node
      1,         250.,          80.,         125.
      2,         250.,           0.,         125.
      3,         250.,           0.,           0.
      4,         250.,          80.,           0.
      5,           0.,           0.,         125.
      6,           0.,           0.,           0.
      7,           0.,          80.,           0.
      8,           0.,          80.,         125.
      9,         250.,          40.,         250.
     10,         250.,           0.,         250.
     11,           0.,          40.,         250.
     12,           0.,           0.,         250.
     13,         250.,   53.3333321,         125.
     14,         250.,    26.666666,         125.
     15,         250.,           0.,    107.14286
     16,         250.,           0.,   89.2857132
     17,         250.,           0.,   71.4285736
     18,         250.,           0.,   53.5714302
     19,         250.,           0.,   35.7142868
     20,         250.,           0.,   17.8571434
** ... 820 like lines cut
*Element, type=C3D8R
  1,  68, 313, 553, 169,   1,  13, 145,  28
  2, 313, 314, 554, 553,  13,  14, 146, 145
  3, 314,  81, 241, 554,  14,   2,  15, 146
  4, 169, 553, 555, 170,  28, 145, 147,  27
  5, 553, 554, 556, 555, 145, 146, 148, 147
  6, 554, 241, 242, 556, 146,  15,  16, 148
  7, 170, 555, 557, 171,  27, 147, 149,  26
  8, 555, 556, 558, 557, 147, 148, 150, 149
  9, 556, 242, 243, 558, 148,  16,  17, 150
 10, 171, 557, 559, 172,  26, 149, 151,  25
 11, 557, 558, 560, 559, 149, 150, 152, 151
 12, 558, 243, 244, 560, 150,  17,  18, 152
 13, 172, 559, 561, 173,  25, 151, 153,  24
 14, 559, 560, 562, 561, 151, 152, 154, 153
 15, 560, 244, 245, 562, 152,  18,  19, 154
 16, 173, 561, 563, 174,  24, 153, 155,  23
 17, 561, 562, 564, 563, 153, 154, 156, 155
 18, 562, 245, 246, 564, 154,  19,  20, 156
 19, 174, 563, 337,  45,  23, 155,  22,   4
 20, 563, 564, 338, 337, 155, 156,  21,  22
** ... 526 like lines cut
*Nset, nset=Set-1, generate
   1,  840,    1
*Elset, elset=Set-1, generate
   1,  546,    1
** Section: Section-1
*Solid Section, elset=Set-1, material=Material-1
,
*End Instance
**  
*Instance, name=M1-4, part=M1
*Node
      1,         250.,          80.,         125.
      2,         250.,           0.,         125.
      3,         250.,           0.,           0.
      4,         250.,          80.,           0.
      5,           0.,           0.,         125.
      6,           0.,           0.,           0.
      7,           0.,          80.,           0.
      8,           0.,          80.,         125.
      9,         250.,          40.,         250.
     10,         250.,           0.,         250.
     11,           0.,          40.,         250.
     12,           0.,           0.,         250.
     13,         250.,   53.3333321,         125.
     14,         250.,    26.666666,         125.
     15,         250.,           0.,    107.14286
     16,         250.,           0.,   89.2857132
     17,         250.,           0.,   71.4285736
     18,         250.,           0.,   53.5714302
     19,         250.,           0.,   35.7142868
     20,         250.,           0.,   17.8571434
** ... 820 like lines cut
*Element, type=C3D8R
  1,  68, 313, 553, 169,   1,  13, 145,  28
  2, 313, 314, 554, 553,  13,  14, 146, 145
  3, 314,  81, 241, 554,  14,   2,  15, 146
  4, 169, 553, 555, 170,  28, 145, 147,  27
  5, 553, 554, 556, 555, 145, 146, 148, 147
  6, 554, 241, 242, 556, 146,  15,  16, 148
  7, 170, 555, 557, 171,  27, 147, 149,  26
  8, 555, 556, 558, 557, 147, 148, 150, 149
  9, 556, 242, 243, 558, 148,  16,  17, 150
 10, 171, 557, 559, 172,  26, 149, 151,  25
 11, 557, 558, 560, 559, 149, 150, 152, 151
 12, 558, 243, 244, 560, 150,  17,  18, 152
 13, 172, 559, 561, 173,  25, 151, 153,  24
 14, 559, 560, 562, 561, 151, 152, 154, 153
 15, 560, 244, 245, 562, 152,  18,  19, 154
 16, 173, 561, 563, 174,  24, 153, 155,  23
 17, 561, 562, 564, 563, 153, 154, 156, 155
 18, 562, 245, 246, 564, 154,  19,  20, 156
 19, 174, 563, 337,  45,  23, 155,  22,   4
 20, 563, 564, 338, 337, 155, 156,  21,  22
** ... 526 like lines cut
*Nset, nset=Set-1, generate
   1,  840,    1
*Elset, elset=Set-1, generate
   1,  546,    1
** Section: Section-1
*Solid Section, elset=Set-1, material=Material-1
,
*End Instance
**  
*Nset, nset=Set-1, instance=M1-1
   1,   2,   3,   4,   5,   6,   7,   8,   9,  10,  11,  12,  13,  14,  15,  16
  17,  18,  19,  20,  21,  22,  23,  24,  25,  26,  27,  28,  29,  30,  31,  32
  33,  34,  35,  36,  37,  38,  39,  40,  41,  42,  43,  44,  45,  46,  47,  48
  49,  50,  51,  52,  53,  54,  55,  56,  69,  70,  71,  72,  73,  74,  75,  76
  77,  78,  79,  80,  81,  82,  83,  84,  85,  86,  87,  88,  89,  90,  91,  92
  93,  94,  95,  96,  97,  98,  99, 100, 101, 102, 103, 104, 105, 106, 107, 108
 109, 110, 111, 112, 113, 114, 115, 116, 117, 118, 119, 120, 121, 122, 123, 124
 125, 126, 127, 128, 129, 130, 131, 132, 133, 134, 135, 136, 137, 138, 139, 140
 141, 142, 143, 144, 145, 146, 147, 148, 149, 150, 151, 152, 153, 154, 155, 156
 157, 158, 159, 160, 161, 162, 163, 164, 165, 166, 167, 168, 241, 242, 243, 244
 245, 246, 247, 248, 249, 250, 251, 252, 253, 254, 255, 256, 257, 258, 259, 260
 261, 262, 263, 264, 265, 266, 267, 268, 269, 270, 271, 272, 273, 274, 275, 276
 277, 278, 279, 280, 281, 282, 283, 284, 285, 286, 287, 288, 289, 290, 291, 292
 293, 294, 295, 296, 297, 298, 299, 300, 301, 302, 303, 304, 305, 306, 307, 308
 309, 310, 311, 312, 337, 338, 339, 340, 341, 342, 343, 344, 345, 346, 347, 348
 349, 350, 351, 352, 353, 354, 355, 356, 357, 358, 359, 360, 361, 362, 363, 364
 365, 366, 367, 368, 369, 370, 371, 372, 373, 374, 375, 376, 377, 378, 379, 380
 381, 382, 383, 384, 385, 386, 387, 388, 389, 390, 391, 392, 393, 394, 395, 396
 397, 398, 399, 400, 401, 402, 403, 404, 405, 406, 407, 408, 481, 482, 483, 484
 485, 486, 487, 488, 489, 490, 491, 492, 493, 494, 495, 496, 497, 498, 499, 500
** ... 4 like lines cut
*Elset, elset=Set-1, instance=M1-1
   1,   2,   3,   4,   5,   6,   7,   8,   9,  10,  11,  12,  13,  14,  15,  16
  17,  18,  19,  20,  21,  24,  27,  30,  33,  36,  39,  40,  41,  42,  45,  48
  51,  54,  57,  60,  61,  62,  63,  66,  69,  72,  75,  78,  81,  82,  83,  84
  87,  90,  93,  96,  99, 102, 103, 104, 105, 108, 111, 114, 117, 120, 123, 124
 125, 126, 129, 132, 135, 138, 141, 144, 145, 146, 147, 150, 153, 156, 159, 162
 165, 166, 167, 168, 171, 174, 177, 180, 183, 186, 187, 188, 189, 192, 195, 198
 201, 204, 207, 208, 209, 210, 213, 216, 219, 222, 225, 228, 229, 230, 231, 234
 237, 240, 243, 246, 249, 250, 251, 252, 253, 254, 255, 256, 257, 258, 259, 260
 261, 262, 263, 264, 265, 266, 267, 268, 269, 270, 271, 272, 273, 274, 275, 276
 277, 278, 279, 280, 281, 282, 283, 284, 285, 286, 287, 288, 289, 290, 291, 292
 293, 294, 301, 308, 309, 310, 311, 312, 313, 314, 315, 322, 329, 330, 331, 332
 333, 334, 335, 336, 343, 350, 351, 352, 353, 354, 355, 356, 357, 364, 371, 372
 373, 374, 375, 376, 377, 378, 385, 392, 393, 394, 395, 396, 397, 398, 399, 406
 413, 414, 415, 416, 417, 418, 419, 420, 427, 434, 435, 436, 437, 438, 439, 440
 441, 448, 455, 456, 457, 458, 459, 460, 461, 462, 469, 476, 477, 478, 479, 480
 481, 482, 483, 490, 497, 498, 499, 500, 501, 502, 503, 504, 511, 518, 519, 520
 521, 522, 523, 524, 525, 526, 527, 528, 529, 530, 531, 532, 533, 534, 535, 536
 537, 538, 539, 540, 541, 542, 543, 544, 545, 546
*Elset, elset=_Surf-1_S6, internal, instance=M1-1, generate
   1,  271,    3
*Surface, type=ELEMENT, name=Surf-1
_Surf-1_S6, S6
*End Assembly
** 
** MATERIALS
** 
*Material, name=Material-1
*Elastic
 31622.7, 0.3
** ----------------------------------------------------------------
** 
** STEP: Step-1
** 
*Step, name=Step-1, nlgeom=YES
*Static
0.01, 1., 1e-05, 1.
** 
** BOUNDARY CONDITIONS
** 
** Name: BC-1 Type: Symmetry/Antisymmetry/Encastre
*Boundary
Set-1, ENCASTRE
** 
** LOADS
** 
** Name: Load-1   Type: Pressure
*Dsload
Surf-1, P, 8.192e-05
** 
** OUTPUT REQUESTS
** 
*Restart, write, frequency=0
** 
** FIELD OUTPUT: F-Output-1
** 
*Output, field, variable=PRESELECT
** 
** HISTORY OUTPUT: H-Output-1
** 
*Output, history, variable=PRESELECT
*End Step
