*Heading
** Job name: Job-1 Model name: Model-1
** Generated by: Abaqus/CAE 2018
*Preprint, echo=NO, model=NO, history=NO, contact=NO
**
** PARTS
**
*Part, name=deg32
*End Part
**  
**
** ASSEMBLY
**
*Assembly, name=Assembly
**  
*Instance, name=deg32-1, part=deg32
*Node
      1,         240.,           0.,   18.4615383
      2,         240.,           0.,           0.
      3,         240.,         120.,           0.
      4,         240.,         120.,   18.4615383
      5,   101.333336,           0.,           0.
      6,   101.333336,         120.,           0.
      7,   87.3836899,         120.,    42.583065
      8,   88.0819778,           0.,   41.6005783
      9,         240.,         240.,           0.
     10,         240.,         240.,   18.4615383
     11,   101.333336,         240.,           0.
     12,   88.0685577,         240.,   41.4173775
     13,         240.,         240.,          80.
     14,         240.,         120.,          80.
     15,   124.444443,         240.,          80.
     16,   124.444443,         120.,          80.
     17,         240.,           0.,          80.
     18,   124.444443,           0.,          80.
     19,           0.,           0.,           0.
     20,           0.,         120.,           0.
** ... 23696 like lines cut
*Element, type=C3D8R
    1,   159,  2268,  9411,  1118,     1,    34,  1026,    83
    2,  2268,  2269,  9412,  9411,    34,    35,  1027,  1026
    3,  2269,   209,  1693,  9412,    35,     2,    36,  1027
    4,  1118,  9411,  9413,  1119,    83,  1026,  1028,    82
    5,  9411,  9412,  9414,  9413,  1026,  1027,  1029,  1028
    6,  9412,  1693,  1694,  9414,  1027,    36,    37,  1029
    7,  1119,  9413,  9415,  1120,    82,  1028,  1030,    81
    8,  9413,  9414,  9416,  9415,  1028,  1029,  1031,  1030
    9,  9414,  1694,  1695,  9416,  1029,    37,    38,  1031
   10,  1120,  9415,  9417,  1121,    81,  1030,  1032,    80
   11,  9415,  9416,  9418,  9417,  1030,  1031,  1033,  1032
   12,  9416,  1695,  1696,  9418,  1031,    38,    39,  1033
   13,  1121,  9417,  9419,  1122,    80,  1032,  1034,    79
   14,  9417,  9418,  9420,  9419,  1032,  1033,  1035,  1034
   15,  9418,  1696,  1697,  9420,  1033,    39,    40,  1035
   16,  1122,  9419,  9421,  1123,    79,  1034,  1036,    78
   17,  9419,  9420,  9422,  9421,  1034,  1035,  1037,  1036
   18,  9420,  1697,  1698,  9422,  1035,    40,    41,  1037
   19,  1123,  9421,  9423,  1124,    78,  1036,  1038,    77
   20,  9421,  9422,  9424,  9423,  1036,  1037,  1039,  1038
** ... 20332 like lines cut
*Nset, nset=Set-1, generate
     1,  23716,      1
*Elset, elset=Set-1, generate
     1,  20352,      1
*Nset, nset=Set-2, generate
     1,  23716,      1
*Elset, elset=Set-2, generate
     1,  20352,      1
** Section: Section-1
*Solid Section, elset=Set-2, material=Material-1
,
*End Instance
**  
*Nset, nset=Set-1, instance=deg32-1
    1,    2,    3,    4,    5,    8,    9,   10,   11,   12,   13,   14,   15,   17,   18,   19
   20,   21,   22,   23,   24,   25,   26,   29,   30,   31,   32,   33,   34,   35,   36,   37
   38,   39,   40,   41,   42,   43,   44,   45,   46,   47,   48,   49,   50,   51,   52,   53
   54,   55,   56,   57,   58,   59,   60,   61,   62,   63,   64,   65,   66,   67,   68,   69
   70,   71,   72,   73,   74,   75,   76,   77,   78,   79,   80,   81,   82,   83,   84,   85
  159,  160,  161,  162,  163,  164,  165,  166,  167,  168,  169,  170,  171,  172,  173,  174
  175,  176,  177,  178,  179,  180,  181,  182,  183,  209,  210,  211,  212,  213,  214,  215
  216,  217,  218,  219,  220,  221,  222,  223,  224,  225,  226,  227,  228,  229,  230,  231
  232,  233,  234,  235,  236,  237,  238,  239,  240,  241,  242,  243,  244,  245,  246,  247
  248,  249,  250,  251,  252,  253,  254,  255,  256,  257,  258,  259,  260,  261,  262,  263
  264,  265,  266,  267,  268,  269,  270,  271,  272,  273,  274,  275,  276,  277,  278,  279
  280,  281,  305,  306,  330,  331,  332,  333,  334,  335,  336,  337,  338,  339,  340,  341
  342,  343,  344,  345,  346,  347,  348,  349,  350,  351,  352,  353,  354,  355,  356,  357
  358,  359,  360,  361,  362,  363,  364,  365,  366,  367,  368,  369,  370,  371,  372,  373
  374,  375,  376,  377,  378,  379,  380,  381,  382,  383,  384,  385,  386,  387,  388,  389
  390,  391,  392,  393,  394,  395,  396,  397,  398,  399,  400,  401,  402,  403,  404,  405
  406,  407,  408,  409,  410,  411,  412,  413,  414,  415,  416,  417,  418,  419,  420,  421
  422,  423,  424,  425,  426,  427,  428,  429,  487,  488,  489,  490,  491,  492,  493,  494
  495,  496,  497,  498,  499,  500,  501,  502,  503,  504,  505,  506,  507,  508,  509,  510
  511,  512,  513,  514,  515,  516,  517,  518,  519,  520,  521,  522,  523,  524,  525,  526
** ... 97 like lines cut
*Elset, elset=Set-1, instance=deg32-1
     1,     2,     3,     4,     5,     6,     7,     8,     9,    10,    11,    12,    13,    14,    15,    16
    17,    18,    19,    20,    21,    22,    23,    24,    25,    26,    27,    28,    29,    30,    31,    32
    33,    34,    35,    36,    37,    38,    39,    40,    41,    42,    43,    44,    45,    46,    47,    48
    49,    50,    51,    52,    53,    54,    55,    56,    57,    58,    59,    60,    61,    62,    63,    64
    65,    66,    67,    68,    69,    70,    71,    72,    73,    74,    75,   145,   146,   147,   217,   218
   219,   289,   290,   291,   361,   362,   363,   433,   434,   435,   505,   506,   507,   577,   578,   579
   649,   650,   651,   721,   722,   723,   793,   794,   795,   865,   866,   867,   937,   938,   939,  1009
  1010,  1011,  1081,  1082,  1083,  1153,  1154,  1155,  1225,  1226,  1227,  1297,  1298,  1299,  1369,  1370
  1371,  1441,  1442,  1443,  1513,  1514,  1515,  1585,  1586,  1587,  1657,  1658,  1659,  1729,  1730,  1731
  1801,  1802,  1803,  1873,  1874,  1875,  1876,  1877,  1878,  1879,  1880,  1881,  1882,  1883,  1884,  1885
  1886,  1887,  1888,  1889,  1890,  1891,  1892,  1893,  1894,  1895,  1896,  1897,  1898,  1899,  1900,  1901
  1902,  1903,  1904,  1905,  1906,  1907,  1908,  1909,  1910,  1911,  1912,  1913,  1914,  1915,  1916,  1917
  1918,  1919,  1920,  1921,  1922,  1923,  1924,  1925,  1926,  1927,  1928,  1929,  1930,  1931,  1932,  1933
  1934,  1935,  1936,  1937,  1938,  1939,  1940,  1941,  1942,  1943,  1944,  1968,  1992,  2016,  2040,  2064
  2088,  2112,  2136,  2160,  2184,  2208,  2232,  2256,  2280,  2304,  2328,  2352,  2376,  2400,  2424,  2448
  2472,  2496,  2520,  2544,  2568,  2592,  2616,  2640,  2664,  2688,  2712,  2736,  2760,  2784,  2808,  2832
  2856,  2880,  2904,  2928,  2952,  2976,  3000,  3024,  3048,  3072,  3096,  3120,  3144,  3168,  3192,  3216
  3240,  3264,  3288,  3312,  3336,  3360,  3384,  3408,  3432,  3456,  3480,  3504,  3528,  3552,  3576,  3600
  3624,  3648,  3672,  3696,  3720,  3744,  3745,  3746,  3747,  3748,  3749,  3750,  3751,  3752,  3753,  3754
  3755,  3756,  3757,  3758,  3759,  3760,  3761,  3762,  3763,  3764,  3765,  3766,  3767,  3768,  3769,  3770
** ... 82 like lines cut
*Nset, nset=Set-2, instance=deg32-1
    2,    3,    5,    6,    9,   11,   19,   20,   23,   36,   37,   38,   39,   40,   41,   42
   43,   44,   45,   46,   47,   48,   49,   50,   51,   52,   53,   54,   55,   56,   57,   58
   86,   87,   88,   89,   90,   91,   92,   93,   94,   95,   96,   97,   98,   99,  100,  101
  102,  103,  104,  105,  106,  107,  108,  184,  185,  186,  187,  188,  189,  190,  191,  192
  193,  194,  195,  196,  197,  198,  199,  200,  201,  202,  203,  204,  205,  206,  207,  208
  209,  210,  211,  212,  213,  214,  215,  216,  217,  218,  219,  220,  221,  222,  223,  224
  225,  226,  227,  228,  229,  230,  231,  232,  233,  234,  235,  236,  237,  238,  239,  240
  241,  242,  243,  244,  245,  246,  247,  248,  249,  250,  251,  252,  253,  254,  255,  256
  282,  283,  284,  285,  286,  287,  288,  289,  290,  291,  292,  293,  294,  295,  296,  297
  298,  299,  300,  301,  302,  303,  304,  355,  356,  357,  358,  359,  360,  361,  362,  363
  364,  365,  366,  367,  368,  369,  370,  371,  372,  373,  374,  375,  376,  377,  378,  379
  601,  602,  603,  604,  605,  606,  607,  608,  609,  610,  611,  612,  613,  614,  615,  616
  617,  618,  619,  620,  621,  622,  623,  624,  625,  626,  627,  628,  629,  630,  631,  632
  633,  634,  635,  636,  637,  638,  639,  640,  641,  642,  643,  644,  645,  646,  647,  648
  649,  650,  651,  652,  653,  654,  655,  656,  657,  658,  659,  723,  724,  725,  726,  727
  728,  729,  730,  731,  732,  733,  734,  735,  736,  737,  738,  739,  740,  741,  742,  743
  744,  745,  746,  747,  748,  749,  750,  751,  752,  753,  754,  755,  756,  757,  758,  759
  760,  761,  762,  763, 1693, 1694, 1695, 1696, 1697, 1698, 1699, 1700, 1701, 1702, 1703, 1704
 1705, 1706, 1707, 1708, 1709, 1710, 1711, 1712, 1713, 1714, 1715, 1716, 1717, 1718, 1719, 1720
 1721, 1722, 1723, 1724, 1725, 1726, 1727, 1728, 1729, 1730, 1731, 1732, 1733, 1734, 1735, 1736
** ... 121 like lines cut
*Elset, elset=Set-2, instance=deg32-1
     3,     6,     9,    12,    15,    18,    21,    24,    27,    30,    33,    36,    39,    42,    45,    48
    51,    54,    57,    60,    63,    66,    69,    72,    75,    78,    81,    84,    87,    90,    93,    96
    99,   102,   105,   108,   111,   114,   117,   120,   123,   126,   129,   132,   135,   138,   141,   144
   147,   150,   153,   156,   159,   162,   165,   168,   171,   174,   177,   180,   183,   186,   189,   192
   195,   198,   201,   204,   207,   210,   213,   216,   219,   222,   225,   228,   231,   234,   237,   240
   243,   246,   249,   252,   255,   258,   261,   264,   267,   270,   273,   276,   279,   282,   285,   288
   291,   294,   297,   300,   303,   306,   309,   312,   315,   318,   321,   324,   327,   330,   333,   336
   339,   342,   345,   348,   351,   354,   357,   360,   363,   366,   369,   372,   375,   378,   381,   384
   387,   390,   393,   396,   399,   402,   405,   408,   411,   414,   417,   420,   423,   426,   429,   432
   435,   438,   441,   444,   447,   450,   453,   456,   459,   462,   465,   468,   471,   474,   477,   480
   483,   486,   489,   492,   495,   498,   501,   504,   507,   510,   513,   516,   519,   522,   525,   528
   531,   534,   537,   540,   543,   546,   549,   552,   555,   558,   561,   564,   567,   570,   573,   576
   579,   582,   585,   588,   591,   594,   597,   600,   603,   606,   609,   612,   615,   618,   621,   624
   627,   630,   633,   636,   639,   642,   645,   648,   651,   654,   657,   660,   663,   666,   669,   672
   675,   678,   681,   684,   687,   690,   693,   696,   699,   702,   705,   708,   711,   714,   717,   720
   723,   726,   729,   732,   735,   738,   741,   744,   747,   750,   753,   756,   759,   762,   765,   768
   771,   774,   777,   780,   783,   786,   789,   792,   795,   798,   801,   804,   807,   810,   813,   816
   819,   822,   825,   828,   831,   834,   837,   840,   843,   846,   849,   852,   855,   858,   861,   864
   867,   870,   873,   876,   879,   882,   885,   888,   891,   894,   897,   900,   903,   906,   909,   912
   915,   918,   921,   924,   927,   930,   933,   936,   939,   942,   945,   948,   951,   954,   957,   960
** ... 115 like lines cut
*Elset, elset=_Surf-1_S4, internal, instance=deg32-1, generate
 3754,  9984,    10
*Elset, elset=_Surf-1_S3, internal, instance=deg32-1
  9985,  9986,  9987,  9988,  9989,  9990,  9991,  9992,  9993,  9994,  9995,  9996,  9997,  9998,  9999, 10000
 10001, 10002, 10003, 10004, 10005, 10006, 10007, 10008, 10225, 10226, 10227, 10228, 10229, 10230, 10231, 10232
 10233, 10234, 10235, 10236, 10237, 10238, 10239, 10240, 10241, 10242, 10243, 10244, 10245, 10246, 10247, 10248
 10465, 10466, 10467, 10468, 10469, 10470, 10471, 10472, 10473, 10474, 10475, 10476, 10477, 10478, 10479, 10480
 10481, 10482, 10483, 10484, 10485, 10486, 10487, 10488, 10705, 10706, 10707, 10708, 10709, 10710, 10711, 10712
 10713, 10714, 10715, 10716, 10717, 10718, 10719, 10720, 10721, 10722, 10723, 10724, 10725, 10726, 10727, 10728
 10945, 10946, 10947, 10948, 10949, 10950, 10951, 10952, 10953, 10954, 10955, 10956, 10957, 10958, 10959, 10960
 10961, 10962, 10963, 10964, 10965, 10966, 10967, 10968, 11185, 11186, 11187, 11188, 11189, 11190, 11191, 11192
 11193, 11194, 11195, 11196, 11197, 11198, 11199, 11200, 11201, 11202, 11203, 11204, 11205, 11206, 11207, 11208
 11425, 11426, 11427, 11428, 11429, 11430, 11431, 11432, 11433, 11434, 11435, 11436, 11437, 11438, 11439, 11440
 11441, 11442, 11443, 11444, 11445, 11446, 11447, 11448, 11665, 11666, 11667, 11668, 11669, 11670, 11671, 11672
 11673, 11674, 11675, 11676, 11677, 11678, 11679, 11680, 11681, 11682, 11683, 11684, 11685, 11686, 11687, 11688
 11905, 11906, 11907, 11908, 11909, 11910, 11911, 11912, 11913, 11914, 11915, 11916, 11917, 11918, 11919, 11920
 11921, 11922, 11923, 11924, 11925, 11926, 11927, 11928, 12145, 12146, 12147, 12148, 12149, 12150, 12151, 12152
 12153, 12154, 12155, 12156, 12157, 12158, 12159, 12160, 12161, 12162, 12163, 12164, 12165, 12166, 12167, 12168
 12385, 12386, 12387, 12388, 12389, 12390, 12391, 12392, 12393, 12394, 12395, 12396, 12397, 12398, 12399, 12400
 12401, 12402, 12403, 12404, 12405, 12406, 12407, 12408, 12625, 12626, 12627, 12628, 12629, 12630, 12631, 12632
 12633, 12634, 12635, 12636, 12637, 12638, 12639, 12640, 12641, 12642, 12643, 12644, 12645, 12646, 12647, 12648
 12865, 12866, 12867, 12868, 12869, 12870, 12871, 12872, 12873, 12874, 12875, 12876, 12877, 12878, 12879, 12880
 12881, 12882, 12883, 12884, 12885, 12886, 12887, 12888, 13105, 13106, 13107, 13108, 13109, 13110, 13111, 13112
** ... 22 like lines cut
*Surface, type=ELEMENT, name=Surf-1
_Surf-1_S4, S4
_Surf-1_S3, S3
*End Assembly
** 
** MATERIALS
** 
*Material, name=Material-1
*Elastic
 3622.78, 0.2
** ----------------------------------------------------------------
** 
** STEP: Step-1
** 
*Step, name=Step-1, nlgeom=NO
*Static
0.01, 1., 1e-05, 1.
** 
** BOUNDARY CONDITIONS
** 
** Name: BC-1 Type: Symmetry/Antisymmetry/Encastre
*Boundary
Set-1, ZASYMM
** Name: BC-2 Type: Symmetry/Antisymmetry/Encastre
*Boundary
Set-2, ENCASTRE
** 
** LOADS
** 
** Name: Load-1   Type: Pressure
*Dsload
Surf-1, P, 5.
** 
** OUTPUT REQUESTS
** 
*Restart, write, frequency=0
** 
** FIELD OUTPUT: F-Output-2
** 
*Output, field
*Node Output
U, 
*Element Output, directions=YES
E, S
** 
** FIELD OUTPUT: F-Output-1
** 
*Output, field, variable=PRESELECT
** 
** HISTORY OUTPUT: H-Output-1
** 
*Output, history, variable=PRESELECT
*End Step
