*Heading
** Job name: STANDARD Model name: Model-1
** Generated by: Abaqus/CAE 2018
*Preprint, echo=NO, model=NO, history=NO, contact=NO
**
** PARTS
**
*Part, name=P250(std_square)
*End Part
**  
**
** ASSEMBLY
**
*Assembly, name=Assembly
**  
*Instance, name=P250(std_square)-1, part=P250(std_square)
*Node
      1,         250.,           0.,           0.
      2,         250.,   8.06451607,           0.
      3,         250.,   16.1290321,           0.
      4,         250.,   24.1935482,           0.
      5,         250.,   32.2580643,           0.
      6,         250.,   40.3225822,           0.
      7,         250.,   48.3870964,           0.
      8,         250.,   56.4516144,           0.
      9,         250.,   64.5161285,           0.
     10,         250.,   72.5806427,           0.
     11,         250.,   80.6451645,           0.
     12,         250.,   88.7096786,           0.
     13,         250.,   96.7741928,           0.
     14,         250.,   104.838707,           0.
     15,         250.,   112.903229,           0.
     16,         250.,   120.967743,           0.
     17,         250.,   129.032257,           0.
     18,         250.,   137.096771,           0.
     19,         250.,   145.161285,           0.
     20,         250.,     153.2258,           0.
** ... 14316 like lines cut
*Element, type=C3D8R
    1,   449,   450,   482,   481,     1,     2,    34,    33
    2,   450,   451,   483,   482,     2,     3,    35,    34
    3,   451,   452,   484,   483,     3,     4,    36,    35
    4,   452,   453,   485,   484,     4,     5,    37,    36
    5,   453,   454,   486,   485,     5,     6,    38,    37
    6,   454,   455,   487,   486,     6,     7,    39,    38
    7,   455,   456,   488,   487,     7,     8,    40,    39
    8,   456,   457,   489,   488,     8,     9,    41,    40
    9,   457,   458,   490,   489,     9,    10,    42,    41
   10,   458,   459,   491,   490,    10,    11,    43,    42
   11,   459,   460,   492,   491,    11,    12,    44,    43
   12,   460,   461,   493,   492,    12,    13,    45,    44
   13,   461,   462,   494,   493,    13,    14,    46,    45
   14,   462,   463,   495,   494,    14,    15,    47,    46
   15,   463,   464,   496,   495,    15,    16,    48,    47
   16,   464,   465,   497,   496,    16,    17,    49,    48
   17,   465,   466,   498,   497,    17,    18,    50,    49
   18,   466,   467,   499,   498,    18,    19,    51,    50
   19,   467,   468,   500,   499,    19,    20,    52,    51
   20,   468,   469,   501,   500,    20,    21,    53,    52
** ... 12473 like lines cut
*Nset, nset=Set-1, generate
     1,  14336,      1
*Elset, elset=Set-1, generate
     1,  12493,      1
** Section: Section-1
*Solid Section, elset=Set-1, material=Material-1
,
*End Instance
**  
*Nset, nset=Set-1, instance=P250(std_square)-1
     1,     2,     3,     4,     5,     6,     7,     8,     9,    10,    11,    12,    13,    14,    15,    16
    17,    18,    19,    20,    21,    22,    23,    24,    25,    26,    27,    28,    29,    30,    31,    32
    33,    34,    35,    36,    37,    38,    39,    40,    41,    42,    43,    44,    45,    46,    47,    48
    49,    50,    51,    52,    53,    54,    55,    56,    57,    58,    59,    60,    61,    62,    63,    64
    65,    66,    67,    68,    69,    70,    71,    72,    73,    74,    75,    76,    77,    78,    79,    80
    81,    82,    83,    84,    85,    86,    87,    88,    89,    90,    91,    92,    93,    94,    95,    96
    97,    98,    99,   100,   101,   102,   103,   104,   105,   106,   107,   108,   109,   110,   111,   112
   113,   114,   115,   116,   117,   118,   119,   120,   121,   122,   123,   124,   125,   126,   127,   128
   129,   130,   131,   132,   133,   134,   135,   136,   137,   138,   139,   140,   141,   142,   143,   144
   145,   146,   147,   148,   149,   150,   151,   152,   153,   154,   155,   156,   157,   158,   159,   160
   161,   162,   163,   164,   165,   166,   167,   168,   169,   170,   171,   172,   173,   174,   175,   176
   177,   178,   179,   180,   181,   182,   183,   184,   185,   186,   187,   188,   189,   190,   191,   192
   193,   194,   195,   196,   197,   198,   199,   200,   201,   202,   203,   204,   205,   206,   207,   208
   209,   210,   211,   212,   213,   214,   215,   216,   217,   218,   219,   220,   221,   222,   223,   224
   225,   226,   227,   228,   229,   230,   231,   232,   233,   234,   235,   236,   237,   238,   239,   240
   241,   242,   243,   244,   245,   246,   247,   248,   249,   250,   251,   252,   253,   254,   255,   256
   257,   258,   259,   260,   261,   262,   263,   264,   265,   266,   267,   268,   269,   270,   271,   272
   273,   274,   275,   276,   277,   278,   279,   280,   281,   282,   283,   284,   285,   286,   287,   288
   289,   290,   291,   292,   293,   294,   295,   296,   297,   298,   299,   300,   301,   302,   303,   304
   305,   306,   307,   308,   309,   310,   311,   312,   313,   314,   315,   316,   317,   318,   319,   320
** ... 89 like lines cut
*Elset, elset=Set-1, instance=P250(std_square)-1
     1,     2,     3,     4,     5,     6,     7,     8,     9,    10,    11,    12,    13,    14,    15,    16
    17,    18,    19,    20,    21,    22,    23,    24,    25,    26,    27,    28,    29,    30,    31,    32
    33,    34,    35,    36,    37,    38,    39,    40,    41,    42,    43,    44,    45,    46,    47,    48
    49,    50,    51,    52,    53,    54,    55,    56,    57,    58,    59,    60,    61,    62,    63,    64
    65,    66,    67,    68,    69,    70,    71,    72,    73,    74,    75,    76,    77,    78,    79,    80
    81,    82,    83,    84,    85,    86,    87,    88,    89,    90,    91,    92,    93,    94,    95,    96
    97,    98,    99,   100,   101,   102,   103,   104,   105,   106,   107,   108,   109,   110,   111,   112
   113,   114,   115,   116,   117,   118,   119,   120,   121,   122,   123,   124,   125,   126,   127,   128
   129,   130,   131,   132,   133,   134,   135,   136,   137,   138,   139,   140,   141,   142,   143,   144
   145,   146,   147,   148,   149,   150,   151,   152,   153,   154,   155,   156,   157,   158,   159,   160
   161,   162,   163,   164,   165,   166,   167,   168,   169,   170,   171,   172,   173,   174,   175,   176
   177,   178,   179,   180,   181,   182,   183,   184,   185,   186,   187,   188,   189,   190,   191,   192
   193,   194,   195,   196,   197,   198,   199,   200,   201,   202,   203,   204,   205,   206,   207,   208
   209,   210,   211,   212,   213,   214,   215,   216,   217,   218,   219,   220,   221,   222,   223,   224
   225,   226,   227,   228,   229,   230,   231,   232,   233,   234,   235,   236,   237,   238,   239,   240
   241,   242,   243,   244,   245,   246,   247,   248,   249,   250,   251,   252,   253,   254,   255,   256
   257,   258,   259,   260,   261,   262,   263,   264,   265,   266,   267,   268,   269,   270,   271,   272
   273,   274,   275,   276,   277,   278,   279,   280,   281,   282,   283,   284,   285,   286,   287,   288
   289,   290,   291,   292,   293,   294,   295,   296,   297,   298,   299,   300,   301,   302,   303,   304
   305,   306,   307,   308,   309,   310,   311,   312,   313,   314,   315,   316,   317,   318,   319,   320
** ... 78 like lines cut
*Nset, nset=Set-2, instance=P250(std_square)-1
     1,     2,     3,     4,     5,     6,     7,     8,     9,    10,    11,    12,    13,    14,    15,    16
    17,    18,    19,    20,    21,    22,    23,    24,    25,    26,    27,    28,    29,    30,    31,    32
   449,   450,   451,   452,   453,   454,   455,   456,   457,   458,   459,   460,   461,   462,   463,   464
   465,   466,   467,   468,   469,   470,   471,   472,   473,   474,   475,   476,   477,   478,   479,   480
   897,   898,   899,   900,   901,   902,   903,   904,   905,   906,   907,   908,   909,   910,   911,   912
   913,   914,   915,   916,   917,   918,   919,   920,   921,   922,   923,   924,   925,   926,   927,   928
  1345,  1346,  1347,  1348,  1349,  1350,  1351,  1352,  1353,  1354,  1355,  1356,  1357,  1358,  1359,  1360
  1361,  1362,  1363,  1364,  1365,  1366,  1367,  1368,  1369,  1370,  1371,  1372,  1373,  1374,  1375,  1376
  1793,  1794,  1795,  1796,  1797,  1798,  1799,  1800,  1801,  1802,  1803,  1804,  1805,  1806,  1807,  1808
  1809,  1810,  1811,  1812,  1813,  1814,  1815,  1816,  1817,  1818,  1819,  1820,  1821,  1822,  1823,  1824
  2241,  2242,  2243,  2244,  2245,  2246,  2247,  2248,  2249,  2250,  2251,  2252,  2253,  2254,  2255,  2256
  2257,  2258,  2259,  2260,  2261,  2262,  2263,  2264,  2265,  2266,  2267,  2268,  2269,  2270,  2271,  2272
  2689,  2690,  2691,  2692,  2693,  2694,  2695,  2696,  2697,  2698,  2699,  2700,  2701,  2702,  2703,  2704
  2705,  2706,  2707,  2708,  2709,  2710,  2711,  2712,  2713,  2714,  2715,  2716,  2717,  2718,  2719,  2720
  3137,  3138,  3139,  3140,  3141,  3142,  3143,  3144,  3145,  3146,  3147,  3148,  3149,  3150,  3151,  3152
  3153,  3154,  3155,  3156,  3157,  3158,  3159,  3160,  3161,  3162,  3163,  3164,  3165,  3166,  3167,  3168
  3585,  3586,  3587,  3588,  3589,  3590,  3591,  3592,  3593,  3594,  3595,  3596,  3597,  3598,  3599,  3600
  3601,  3602,  3603,  3604,  3605,  3606,  3607,  3608,  3609,  3610,  3611,  3612,  3613,  3614,  3615,  3616
  4033,  4034,  4035,  4036,  4037,  4038,  4039,  4040,  4041,  4042,  4043,  4044,  4045,  4046,  4047,  4048
  4049,  4050,  4051,  4052,  4053,  4054,  4055,  4056,  4057,  4058,  4059,  4060,  4061,  4062,  4063,  4064
** ... 44 like lines cut
*Elset, elset=Set-2, instance=P250(std_square)-1
     1,     2,     3,     4,     5,     6,     7,     8,     9,    10,    11,    12,    13,    14,    15,    16
    17,    18,    19,    20,    21,    22,    23,    24,    25,    26,    27,    28,    29,    30,    31,   404
   405,   406,   407,   408,   409,   410,   411,   412,   413,   414,   415,   416,   417,   418,   419,   420
   421,   422,   423,   424,   425,   426,   427,   428,   429,   430,   431,   432,   433,   434,   807,   808
   809,   810,   811,   812,   813,   814,   815,   816,   817,   818,   819,   820,   821,   822,   823,   824
   825,   826,   827,   828,   829,   830,   831,   832,   833,   834,   835,   836,   837,  1210,  1211,  1212
  1213,  1214,  1215,  1216,  1217,  1218,  1219,  1220,  1221,  1222,  1223,  1224,  1225,  1226,  1227,  1228
  1229,  1230,  1231,  1232,  1233,  1234,  1235,  1236,  1237,  1238,  1239,  1240,  1613,  1614,  1615,  1616
  1617,  1618,  1619,  1620,  1621,  1622,  1623,  1624,  1625,  1626,  1627,  1628,  1629,  1630,  1631,  1632
  1633,  1634,  1635,  1636,  1637,  1638,  1639,  1640,  1641,  1642,  1643,  2016,  2017,  2018,  2019,  2020
  2021,  2022,  2023,  2024,  2025,  2026,  2027,  2028,  2029,  2030,  2031,  2032,  2033,  2034,  2035,  2036
  2037,  2038,  2039,  2040,  2041,  2042,  2043,  2044,  2045,  2046,  2419,  2420,  2421,  2422,  2423,  2424
  2425,  2426,  2427,  2428,  2429,  2430,  2431,  2432,  2433,  2434,  2435,  2436,  2437,  2438,  2439,  2440
  2441,  2442,  2443,  2444,  2445,  2446,  2447,  2448,  2449,  2822,  2823,  2824,  2825,  2826,  2827,  2828
  2829,  2830,  2831,  2832,  2833,  2834,  2835,  2836,  2837,  2838,  2839,  2840,  2841,  2842,  2843,  2844
  2845,  2846,  2847,  2848,  2849,  2850,  2851,  2852,  3225,  3226,  3227,  3228,  3229,  3230,  3231,  3232
  3233,  3234,  3235,  3236,  3237,  3238,  3239,  3240,  3241,  3242,  3243,  3244,  3245,  3246,  3247,  3248
  3249,  3250,  3251,  3252,  3253,  3254,  3255,  3628,  3629,  3630,  3631,  3632,  3633,  3634,  3635,  3636
  3637,  3638,  3639,  3640,  3641,  3642,  3643,  3644,  3645,  3646,  3647,  3648,  3649,  3650,  3651,  3652
  3653,  3654,  3655,  3656,  3657,  3658,  4031,  4032,  4033,  4034,  4035,  4036,  4037,  4038,  4039,  4040
** ... 41 like lines cut
*Elset, elset=_Surf-1_S5, internal, instance=P250(std_square)-1
   373,   374,   375,   376,   377,   378,   379,   380,   381,   382,   383,   384,   385,   386,   387,   388
   389,   390,   391,   392,   393,   394,   395,   396,   397,   398,   399,   400,   401,   402,   403,   776
   777,   778,   779,   780,   781,   782,   783,   784,   785,   786,   787,   788,   789,   790,   791,   792
   793,   794,   795,   796,   797,   798,   799,   800,   801,   802,   803,   804,   805,   806,  1179,  1180
  1181,  1182,  1183,  1184,  1185,  1186,  1187,  1188,  1189,  1190,  1191,  1192,  1193,  1194,  1195,  1196
  1197,  1198,  1199,  1200,  1201,  1202,  1203,  1204,  1205,  1206,  1207,  1208,  1209,  1582,  1583,  1584
  1585,  1586,  1587,  1588,  1589,  1590,  1591,  1592,  1593,  1594,  1595,  1596,  1597,  1598,  1599,  1600
  1601,  1602,  1603,  1604,  1605,  1606,  1607,  1608,  1609,  1610,  1611,  1612,  1985,  1986,  1987,  1988
  1989,  1990,  1991,  1992,  1993,  1994,  1995,  1996,  1997,  1998,  1999,  2000,  2001,  2002,  2003,  2004
  2005,  2006,  2007,  2008,  2009,  2010,  2011,  2012,  2013,  2014,  2015,  2388,  2389,  2390,  2391,  2392
  2393,  2394,  2395,  2396,  2397,  2398,  2399,  2400,  2401,  2402,  2403,  2404,  2405,  2406,  2407,  2408
  2409,  2410,  2411,  2412,  2413,  2414,  2415,  2416,  2417,  2418,  2791,  2792,  2793,  2794,  2795,  2796
  2797,  2798,  2799,  2800,  2801,  2802,  2803,  2804,  2805,  2806,  2807,  2808,  2809,  2810,  2811,  2812
  2813,  2814,  2815,  2816,  2817,  2818,  2819,  2820,  2821,  3194,  3195,  3196,  3197,  3198,  3199,  3200
  3201,  3202,  3203,  3204,  3205,  3206,  3207,  3208,  3209,  3210,  3211,  3212,  3213,  3214,  3215,  3216
  3217,  3218,  3219,  3220,  3221,  3222,  3223,  3224,  3597,  3598,  3599,  3600,  3601,  3602,  3603,  3604
  3605,  3606,  3607,  3608,  3609,  3610,  3611,  3612,  3613,  3614,  3615,  3616,  3617,  3618,  3619,  3620
  3621,  3622,  3623,  3624,  3625,  3626,  3627,  4000,  4001,  4002,  4003,  4004,  4005,  4006,  4007,  4008
  4009,  4010,  4011,  4012,  4013,  4014,  4015,  4016,  4017,  4018,  4019,  4020,  4021,  4022,  4023,  4024
  4025,  4026,  4027,  4028,  4029,  4030,  4403,  4404,  4405,  4406,  4407,  4408,  4409,  4410,  4411,  4412
** ... 41 like lines cut
*Surface, type=ELEMENT, name=Surf-1
_Surf-1_S5, S5
*Elset, elset=_Surf-2_S5, internal, instance=P250(std_square)-1
   373,   374,   375,   376,   377,   378,   379,   380,   381,   382,   383,   384,   385,   386,   387,   388
   389,   390,   391,   392,   393,   394,   395,   396,   397,   398,   399,   400,   401,   402,   403,   776
   777,   778,   779,   780,   781,   782,   783,   784,   785,   786,   787,   788,   789,   790,   791,   792
   793,   794,   795,   796,   797,   798,   799,   800,   801,   802,   803,   804,   805,   806,  1179,  1180
  1181,  1182,  1183,  1184,  1185,  1186,  1187,  1188,  1189,  1190,  1191,  1192,  1193,  1194,  1195,  1196
  1197,  1198,  1199,  1200,  1201,  1202,  1203,  1204,  1205,  1206,  1207,  1208,  1209,  1582,  1583,  1584
  1585,  1586,  1587,  1588,  1589,  1590,  1591,  1592,  1593,  1594,  1595,  1596,  1597,  1598,  1599,  1600
  1601,  1602,  1603,  1604,  1605,  1606,  1607,  1608,  1609,  1610,  1611,  1612,  1985,  1986,  1987,  1988
  1989,  1990,  1991,  1992,  1993,  1994,  1995,  1996,  1997,  1998,  1999,  2000,  2001,  2002,  2003,  2004
  2005,  2006,  2007,  2008,  2009,  2010,  2011,  2012,  2013,  2014,  2015,  2388,  2389,  2390,  2391,  2392
  2393,  2394,  2395,  2396,  2397,  2398,  2399,  2400,  2401,  2402,  2403,  2404,  2405,  2406,  2407,  2408
  2409,  2410,  2411,  2412,  2413,  2414,  2415,  2416,  2417,  2418,  2791,  2792,  2793,  2794,  2795,  2796
  2797,  2798,  2799,  2800,  2801,  2802,  2803,  2804,  2805,  2806,  2807,  2808,  2809,  2810,  2811,  2812
  2813,  2814,  2815,  2816,  2817,  2818,  2819,  2820,  2821,  3194,  3195,  3196,  3197,  3198,  3199,  3200
  3201,  3202,  3203,  3204,  3205,  3206,  3207,  3208,  3209,  3210,  3211,  3212,  3213,  3214,  3215,  3216
  3217,  3218,  3219,  3220,  3221,  3222,  3223,  3224,  3597,  3598,  3599,  3600,  3601,  3602,  3603,  3604
  3605,  3606,  3607,  3608,  3609,  3610,  3611,  3612,  3613,  3614,  3615,  3616,  3617,  3618,  3619,  3620
  3621,  3622,  3623,  3624,  3625,  3626,  3627,  4000,  4001,  4002,  4003,  4004,  4005,  4006,  4007,  4008
  4009,  4010,  4011,  4012,  4013,  4014,  4015,  4016,  4017,  4018,  4019,  4020,  4021,  4022,  4023,  4024
  4025,  4026,  4027,  4028,  4029,  4030,  4403,  4404,  4405,  4406,  4407,  4408,  4409,  4410,  4411,  4412
** ... 41 like lines cut
*Surface, type=ELEMENT, name=Surf-2
_Surf-2_S5, S5
*Elset, elset=_Surf-3_S5, internal, instance=P250(std_square)-1
   373,   374,   375,   376,   377,   378,   379,   380,   381,   382,   383,   384,   385,   386,   387,   388
   389,   390,   391,   392,   393,   394,   395,   396,   397,   398,   399,   400,   401,   402,   403,   776
   777,   778,   779,   780,   781,   782,   783,   784,   785,   786,   787,   788,   789,   790,   791,   792
   793,   794,   795,   796,   797,   798,   799,   800,   801,   802,   803,   804,   805,   806,  1179,  1180
  1181,  1182,  1183,  1184,  1185,  1186,  1187,  1188,  1189,  1190,  1191,  1192,  1193,  1194,  1195,  1196
  1197,  1198,  1199,  1200,  1201,  1202,  1203,  1204,  1205,  1206,  1207,  1208,  1209,  1582,  1583,  1584
  1585,  1586,  1587,  1588,  1589,  1590,  1591,  1592,  1593,  1594,  1595,  1596,  1597,  1598,  1599,  1600
  1601,  1602,  1603,  1604,  1605,  1606,  1607,  1608,  1609,  1610,  1611,  1612,  1985,  1986,  1987,  1988
  1989,  1990,  1991,  1992,  1993,  1994,  1995,  1996,  1997,  1998,  1999,  2000,  2001,  2002,  2003,  2004
  2005,  2006,  2007,  2008,  2009,  2010,  2011,  2012,  2013,  2014,  2015,  2388,  2389,  2390,  2391,  2392
  2393,  2394,  2395,  2396,  2397,  2398,  2399,  2400,  2401,  2402,  2403,  2404,  2405,  2406,  2407,  2408
  2409,  2410,  2411,  2412,  2413,  2414,  2415,  2416,  2417,  2418,  2791,  2792,  2793,  2794,  2795,  2796
  2797,  2798,  2799,  2800,  2801,  2802,  2803,  2804,  2805,  2806,  2807,  2808,  2809,  2810,  2811,  2812
  2813,  2814,  2815,  2816,  2817,  2818,  2819,  2820,  2821,  3194,  3195,  3196,  3197,  3198,  3199,  3200
  3201,  3202,  3203,  3204,  3205,  3206,  3207,  3208,  3209,  3210,  3211,  3212,  3213,  3214,  3215,  3216
  3217,  3218,  3219,  3220,  3221,  3222,  3223,  3224,  3597,  3598,  3599,  3600,  3601,  3602,  3603,  3604
  3605,  3606,  3607,  3608,  3609,  3610,  3611,  3612,  3613,  3614,  3615,  3616,  3617,  3618,  3619,  3620
  3621,  3622,  3623,  3624,  3625,  3626,  3627,  4000,  4001,  4002,  4003,  4004,  4005,  4006,  4007,  4008
  4009,  4010,  4011,  4012,  4013,  4014,  4015,  4016,  4017,  4018,  4019,  4020,  4021,  4022,  4023,  4024
  4025,  4026,  4027,  4028,  4029,  4030,  4403,  4404,  4405,  4406,  4407,  4408,  4409,  4410,  4411,  4412
** ... 41 like lines cut
*Surface, type=ELEMENT, name=Surf-3
_Surf-3_S5, S5
*End Assembly
*Amplitude, name=Amp-1
            0.1,           514.8,             0.2,          1029.6,             0.3,          1544.4,             0.4,          2059.2
            0.5,           2574.,             0.6,          3088.8,             0.7,          3603.6,             0.8,          4118.4
            0.9,          4633.2,              1.,           5148.
** 
** MATERIALS
** 
*Material, name=Material-1
*Elastic
 31622.8, 0.2
** ----------------------------------------------------------------
** 
** STEP: Step-1
** 
*Step, name=Step-1, nlgeom=NO
*Static
0.1, 1., 1e-05, 1.
** 
** BOUNDARY CONDITIONS
** 
** Name: BC-1 Type: Symmetry/Antisymmetry/Encastre
*Boundary
Set-1, ZASYMM
** Name: BC-2 Type: Symmetry/Antisymmetry/Encastre
*Boundary
Set-2, ENCASTRE
** 
** LOADS
** 
** Name: Load-1   Type: Pressure
*Dsload
Surf-3, P, 0.8
** 
** OUTPUT REQUESTS
** 
*Restart, write, frequency=0
** 
** FIELD OUTPUT: F-Output-2
** 
*Output, field
*Node Output
U, 
*Element Output, directions=YES
E, S
** 
** FIELD OUTPUT: F-Output-1
** 
*Output, field, variable=PRESELECT
** 
** HISTORY OUTPUT: H-Output-1
** 
*Output, history, variable=PRESELECT
*End Step
