*Heading
** Job name: stdHex Model name: Model-1
** Generated by: Abaqus/CAE 2018
*Preprint, echo=NO, model=NO, history=NO, contact=NO
**
** PARTS
**
*Part, name=standard_hexagon
*End Part
**  
**
** ASSEMBLY
**
*Assembly, name=Assembly
**  
*Instance, name=standard_hexagon-1, part=standard_hexagon
*Node
      1,   134.233932,         310.,   53.8461533
      2,   134.233932,         310.,           0.
      3,   67.1169662,       271.25,           0.
      4,   67.1169662,       271.25,   53.8461533
      5,   204.883377,   269.210541,   53.8461533
      6,   204.883377,   269.210541,           0.
      7,   140.940033,   152.077438,           0.
      8,   140.979507,   151.155258,   53.8461571
      9,           0.,        232.5,           0.
     10,           0.,        232.5,   53.8461533
     11,           0.,         155.,           0.
     12,           0.,         155.,   53.8461533
     13,           0.,        232.5,         100.
     14,   67.1169662,       271.25,         100.
     15,           0.,         155.,         100.
     16,   139.894684,   151.698456,         100.
     17,   134.233932,         310.,         100.
     18,   204.883377,   269.210541,         100.
     19,   268.467865,        232.5,           0.
     20,   268.467865,   150.921051,           0.
** ... 8660 like lines cut
*Element, type=C3D8R
   1,  109,  921, 3720,  759,    1,   40,  651,   69
   2,  921,  922, 3721, 3720,   40,   41,  652,  651
   3,  922,  923, 3722, 3721,   41,   42,  653,  652
   4,  923,  924, 3723, 3722,   42,   43,  654,  653
   5,  924,  925, 3724, 3723,   43,   44,  655,  654
   6,  925,  926, 3725, 3724,   44,   45,  656,  655
   7,  926,  127,  840, 3725,   45,    2,   46,  656
   8,  759, 3720, 3726,  760,   69,  651,  657,   68
   9, 3720, 3721, 3727, 3726,  651,  652,  658,  657
  10, 3721, 3722, 3728, 3727,  652,  653,  659,  658
  11, 3722, 3723, 3729, 3728,  653,  654,  660,  659
  12, 3723, 3724, 3730, 3729,  654,  655,  661,  660
  13, 3724, 3725, 3731, 3730,  655,  656,  662,  661
  14, 3725,  840,  841, 3731,  656,   46,   47,  662
  15,  760, 3726, 3732,  761,   68,  657,  663,   67
  16, 3726, 3727, 3733, 3732,  657,  658,  664,  663
  17, 3727, 3728, 3734, 3733,  658,  659,  665,  664
  18, 3728, 3729, 3735, 3734,  659,  660,  666,  665
  19, 3729, 3730, 3736, 3735,  660,  661,  667,  666
  20, 3730, 3731, 3737, 3736,  661,  662,  668,  667
** ... 7273 like lines cut
*Nset, nset=Set-1, generate
    1,  8680,     1
*Elset, elset=Set-1, generate
    1,  7293,     1
** Section: Section-1
*Solid Section, elset=Set-1, material=Material-1
,
*End Instance
**  
*Nset, nset=Set-3, instance=standard_hexagon-1
    1,    2,    3,    4,    5,    6,    9,   10,   11,   12,   13,   14,   15,   17,   18,   19
   20,   21,   22,   23,   24,   25,   26,   27,   28,   29,   30,   31,   32,   33,   34,   35
   36,   37,   38,   39,   40,   41,   42,   43,   44,   45,   46,   47,   48,   49,   50,   51
   52,   53,   54,   55,   56,   57,   58,   59,   60,   61,   62,   63,   64,   65,   66,   67
   68,   69,   70,   71,   72,   73,   74,   75,  109,  110,  111,  112,  113,  114,  115,  116
  117,  127,  128,  129,  130,  131,  132,  133,  134,  135,  136,  137,  138,  139,  140,  141
  142,  143,  144,  145,  146,  147,  148,  149,  150,  151,  152,  153,  154,  155,  156,  157
  158,  159,  169,  170,  171,  172,  173,  174,  184,  185,  186,  187,  188,  189,  190,  191
  192,  193,  194,  195,  196,  197,  198,  199,  200,  201,  202,  203,  204,  205,  206,  207
  208,  209,  210,  211,  212,  213,  214,  215,  216,  217,  218,  219,  220,  221,  222,  223
  224,  225,  249,  250,  251,  252,  253,  254,  255,  256,  257,  258,  259,  260,  261,  262
  263,  264,  265,  266,  267,  268,  269,  270,  271,  281,  282,  283,  284,  285,  286,  287
  288,  289,  290,  291,  292,  293,  294,  295,  296,  297,  298,  299,  300,  301,  302,  303
  304,  305,  306,  307,  308,  309,  310,  311,  320,  321,  322,  323,  324,  325,  326,  327
  328,  329,  330,  331,  332,  333,  334,  335,  336,  345,  346,  347,  348,  349,  350,  351
  352,  353,  354,  355,  356,  357,  358,  359,  360,  361,  362,  363,  364,  365,  366,  367
  368,  369,  370,  371,  372,  381,  382,  383,  384,  385,  386,  387,  388,  389,  390,  391
  392,  393,  394,  395,  396,  405,  406,  407,  408,  409,  410,  411,  412,  413,  414,  415
  416,  417,  418,  419,  420,  421,  422,  423,  424,  425,  426,  427,  428,  429,  430,  431
  432,  433,  443,  444,  445,  446,  447,  448,  449,  450,  451,  452,  453,  454,  455,  456
** ... 82 like lines cut
*Elset, elset=Set-3, instance=standard_hexagon-1
    1,    2,    3,    4,    5,    6,    7,    8,    9,   10,   11,   12,   13,   14,   15,   16
   17,   18,   19,   20,   21,   22,   23,   24,   25,   26,   27,   28,   29,   30,   31,   32
   33,   34,   35,   36,   37,   38,   39,   40,   41,   42,   43,   44,   45,   46,   47,   48
   49,   50,   51,   52,   53,   54,   55,   56,   57,   58,   59,   60,   61,   62,   63,   64
   65,   66,   67,   68,   69,   70,   71,   72,   73,   74,   75,   76,   77,  141,  142,  143
  144,  145,  146,  147,  211,  212,  213,  214,  215,  216,  217,  281,  282,  283,  284,  285
  286,  287,  351,  352,  353,  354,  355,  356,  357,  421,  422,  423,  424,  425,  426,  427
  491,  492,  493,  494,  495,  496,  497,  561,  562,  563,  564,  565,  566,  567,  631,  632
  633,  634,  635,  636,  637,  701,  702,  703,  704,  705,  706,  707,  708,  709,  710,  711
  712,  713,  714,  715,  716,  717,  718,  719,  720,  721,  722,  723,  724,  725,  726,  727
  728,  729,  730,  731,  732,  733,  734,  735,  736,  737,  738,  739,  740,  741,  742,  743
  744,  745,  746,  747,  748,  749,  750,  751,  752,  753,  754,  755,  756,  757,  758,  759
  760,  761,  762,  763,  764,  765,  766,  767,  768,  769,  770,  780,  790,  800,  810,  820
  830,  840,  850,  860,  870,  880,  890,  900,  910,  920,  930,  940,  950,  960,  970,  980
  990, 1000, 1010, 1020, 1030, 1040, 1050, 1060, 1070, 1080, 1090, 1100, 1110, 1120, 1130, 1140
 1150, 1160, 1170, 1180, 1190, 1200, 1210, 1220, 1230, 1240, 1250, 1260, 1270, 1280, 1290, 1300
 1310, 1320, 1330, 1340, 1350, 1360, 1370, 1380, 1390, 1400, 1401, 1402, 1403, 1404, 1405, 1406
 1407, 1408, 1409, 1410, 1411, 1412, 1413, 1414, 1415, 1416, 1417, 1418, 1419, 1420, 1421, 1422
 1423, 1424, 1425, 1426, 1427, 1428, 1429, 1430, 1431, 1432, 1433, 1434, 1435, 1436, 1437, 1438
 1439, 1440, 1441, 1442, 1443, 1444, 1445, 1446, 1447, 1448, 1449, 1450, 1451, 1452, 1453, 1454
** ... 70 like lines cut
*Nset, nset=Set-4, instance=standard_hexagon-1
    2,    3,    6,    7,    9,   11,   19,   20,   23,   24,   27,   28,   31,   46,   47,   48
   49,   50,   51,   52,   53,   54,   76,   77,   78,   79,   80,   81,   82,   83,   84,  118
  119,  120,  121,  122,  123,  124,  125,  126,  127,  128,  129,  130,  131,  132,  133,  134
  135,  136,  137,  138,  139,  140,  141,  142,  143,  144,  160,  161,  162,  163,  164,  165
  166,  167,  168,  193,  194,  195,  196,  197,  198,  199,  200,  201,  295,  296,  297,  298
  299,  300,  301,  302,  303,  304,  305,  306,  307,  308,  309,  310,  311,  312,  313,  314
  315,  316,  317,  318,  319,  357,  358,  359,  360,  361,  362,  363,  364,  365,  366,  367
  368,  369,  370,  371,  372,  373,  374,  375,  376,  377,  378,  379,  380,  417,  418,  419
  420,  421,  422,  423,  424,  425,  426,  427,  428,  429,  430,  431,  432,  433,  434,  435
  436,  437,  438,  439,  440,  441,  442,  481,  482,  483,  484,  485,  486,  487,  488,  489
  490,  491,  492,  493,  494,  495,  496,  497,  498,  840,  841,  842,  843,  844,  845,  846
  847,  848,  849,  850,  851,  852,  853,  854,  855,  856,  857,  858,  859,  860,  861,  862
  863,  864,  865,  866,  867,  868,  869,  870,  871,  872,  873,  874,  875,  876,  877,  878
  879,  880,  881,  882,  883,  884,  885,  886,  887,  888,  889,  890,  891,  892,  893,  894
  895,  896,  897,  898,  899,  900,  901,  902,  903,  904,  905,  906,  907,  908,  909,  910
  911,  912,  913,  914,  915,  916,  917,  918,  919,  920, 1191, 1192, 1193, 1194, 1195, 1196
 1197, 1198, 1199, 1200, 1201, 1202, 1203, 1204, 1205, 1206, 1207, 1208, 1209, 1210, 1211, 1212
 1213, 1214, 1215, 1216, 1217, 1218, 1219, 1220, 1221, 1222, 1223, 1224, 1225, 1226, 1227, 1228
 1229, 1230, 1231, 1232, 1233, 1234, 1235, 1236, 1237, 1238, 1239, 1240, 1241, 1242, 1243, 1244
 1245, 1246, 1247, 1248, 1249, 1250, 1251, 1252, 1253, 1254, 1255, 1256, 1257, 1258, 1259, 1260
** ... 19 like lines cut
*Elset, elset=Set-4, instance=standard_hexagon-1
    7,   14,   21,   28,   35,   42,   49,   56,   63,   70,   77,   84,   91,   98,  105,  112
  119,  126,  133,  140,  147,  154,  161,  168,  175,  182,  189,  196,  203,  210,  217,  224
  231,  238,  245,  252,  259,  266,  273,  280,  287,  294,  301,  308,  315,  322,  329,  336
  343,  350,  357,  364,  371,  378,  385,  392,  399,  406,  413,  420,  427,  434,  441,  448
  455,  462,  469,  476,  483,  490,  497,  504,  511,  518,  525,  532,  539,  546,  553,  560
  567,  574,  581,  588,  595,  602,  609,  616,  623,  630,  637,  644,  651,  658,  665,  672
  679,  686,  693,  700,  701,  702,  703,  704,  705,  706,  707,  708,  709,  710,  771,  772
  773,  774,  775,  776,  777,  778,  779,  780,  841,  842,  843,  844,  845,  846,  847,  848
  849,  850,  911,  912,  913,  914,  915,  916,  917,  918,  919,  920,  981,  982,  983,  984
  985,  986,  987,  988,  989,  990, 1051, 1052, 1053, 1054, 1055, 1056, 1057, 1058, 1059, 1060
 1121, 1122, 1123, 1124, 1125, 1126, 1127, 1128, 1129, 1130, 1191, 1192, 1193, 1194, 1195, 1196
 1197, 1198, 1199, 1200, 1261, 1262, 1263, 1264, 1265, 1266, 1267, 1268, 1269, 1270, 1331, 1332
 1333, 1334, 1335, 1336, 1337, 1338, 1339, 1340, 2601, 2602, 2603, 2604, 2605, 2606, 2607, 2608
 2609, 2610, 2611, 2612, 2613, 2614, 2615, 2616, 2617, 2618, 2619, 2620, 2621, 2622, 2623, 2624
 2625, 2626, 2627, 2628, 2629, 2630, 2631, 2632, 2633, 2634, 2635, 2636, 2637, 2638, 2639, 2640
 2641, 2642, 2643, 2644, 2645, 2646, 2647, 2648, 2649, 2650, 2651, 2652, 2653, 2654, 2655, 2656
 2657, 2658, 2659, 2660, 2661, 2662, 2663, 2664, 2665, 2666, 2667, 2668, 2669, 2670, 2671, 2672
 2673, 2674, 2675, 2676, 2677, 2678, 2679, 2680, 2681, 2682, 2683, 2684, 2685, 2686, 2687, 2688
 2689, 2690, 3231, 3232, 3233, 3234, 3235, 3236, 3237, 3238, 3239, 3240, 3241, 3242, 3243, 3244
 3245, 3246, 3247, 3248, 3249, 3250, 3251, 3252, 3253, 3254, 3255, 3256, 3257, 3258, 3259, 3260
** ... 16 like lines cut
*Elset, elset=_Surf-2_S4, internal, instance=standard_hexagon-1, generate
 1406,  2000,     6
*Elset, elset=_Surf-2_S3, internal, instance=standard_hexagon-1
 2001, 2002, 2003, 2004, 2005, 2006, 2007, 2008, 2009, 2010, 2061, 2062, 2063, 2064, 2065, 2066
 2067, 2068, 2069, 2070, 2121, 2122, 2123, 2124, 2125, 2126, 2127, 2128, 2129, 2130, 2181, 2182
 2183, 2184, 2185, 2186, 2187, 2188, 2189, 2190, 2241, 2242, 2243, 2244, 2245, 2246, 2247, 2248
 2249, 2250, 2301, 2302, 2303, 2304, 2305, 2306, 2307, 2308, 2309, 2310, 2361, 2362, 2363, 2364
 2365, 2366, 2367, 2368, 2369, 2370, 2421, 2422, 2423, 2424, 2425, 2426, 2427, 2428, 2429, 2430
 2481, 2482, 2483, 2484, 2485, 2486, 2487, 2488, 2489, 2490, 2541, 2542, 2543, 2544, 2545, 2546
 2547, 2548, 2549, 2550, 5128, 5129, 5130, 5131, 5132, 5133, 5134, 5135, 5136, 5182, 5183, 5184
 5185, 5186, 5187, 5188, 5189, 5190, 5236, 5237, 5238, 5239, 5240, 5241, 5242, 5243, 5244, 5290
 5291, 5292, 5293, 5294, 5295, 5296, 5297, 5298, 5344, 5345, 5346, 5347, 5348, 5349, 5350, 5351
 5352, 5398, 5399, 5400, 5401, 5402, 5403, 5404, 5405, 5406, 5452, 5453, 5454, 5455, 5456, 5457
 5458, 5459, 5460, 5506, 5507, 5508, 5509, 5510, 5511, 5512, 5513, 5514, 5560, 5561, 5562, 5563
 5564, 5565, 5566, 5567, 5568, 5614, 5615, 5616, 5617, 5618, 5619, 5620, 5621, 5622
*Elset, elset=_Surf-2_S2, internal, instance=standard_hexagon-1
 5668, 5669, 5670, 5671, 5672, 5673, 5674, 5675, 5676, 5677, 5678, 5679, 5680, 5681, 5682, 5683
 5684, 5685, 5686, 5687, 5688, 5689, 5690, 5691, 5692, 5693, 5694, 5695, 5696, 5697, 5698, 5699
 5700, 5701, 5702, 5703, 5704, 5705, 5706, 5707, 5708, 5709, 5710, 5711, 5712, 5713, 5714, 5715
 5716, 5717, 5718, 5719, 5720, 5721, 5722, 5723, 5724, 5725, 5726, 5727, 5728, 5729, 5730, 5731
 5732, 5733, 5734, 5735, 5736, 5737, 5738, 5739, 5740, 5741, 5742, 5743, 5744, 5745, 5746, 5747
 5748, 5749, 5750, 5751, 5752, 5753, 5754, 5755, 5756, 5757, 5758, 5759, 5760, 5761, 5762, 5763
 5764, 5765, 5766, 5767, 6268, 6269, 6270, 6271, 6272, 6273, 6274, 6275, 6276, 6277, 6278, 6279
 6280, 6281, 6282, 6283, 6284, 6285, 6286, 6287, 6288, 6289, 6290, 6291, 6292, 6293, 6294, 6295
 6296, 6297, 6298, 6299, 6300, 6301, 6302, 6303, 6304, 6305, 6306, 6307, 6308, 6309, 6310, 6311
 6312, 6313, 6314, 6315, 6316, 6317, 6318, 6319, 6320, 6321, 6322, 6323, 6324, 6325, 6326, 6327
 6328, 6329, 6330, 6331, 6332, 6333, 6334, 6335, 6336, 6337, 6338, 6339, 6340, 6341, 6342, 6343
 6344, 6345, 6346, 6347, 6348, 6349, 6350, 6351, 6352, 6353, 6354, 6355, 6356, 6357, 6808, 6809
 6810, 6811, 6812, 6813, 6814, 6815, 6816, 6817, 6818, 6819, 6820, 6821, 6822, 6823, 6824, 6825
 6826, 6827, 6828, 6829, 6830, 6831, 6832, 6833, 6834, 6835, 6836, 6837, 6838, 6839, 6840, 6841
 6842, 6843, 6844, 6845, 6846, 6847, 6848, 6849, 6850, 6851, 6852, 6853, 6854, 6855, 6856, 6857
 6858, 6859, 6860, 6861, 6862, 6863, 6864, 6865, 6866, 6867, 6868, 6869, 6870, 6871, 6872, 6873
 6874, 6875, 6876, 6877, 6878, 6879, 6880, 6881, 6882, 6883, 6884, 6885, 6886, 6887, 6888
*Surface, type=ELEMENT, name=Surf-2
_Surf-2_S4, S4
_Surf-2_S3, S3
_Surf-2_S2, S2
*End Assembly
** 
** MATERIALS
** 
*Material, name=Material-1
*Elastic
 31622.8, 0.2
** ----------------------------------------------------------------
** 
** STEP: Step-1
** 
*Step, name=Step-1, nlgeom=NO
*Static
0.1, 1., 1e-05, 1.
** 
** BOUNDARY CONDITIONS
** 
** Name: BC-1 Type: Symmetry/Antisymmetry/Encastre
*Boundary
Set-3, ZASYMM
** Name: BC-2 Type: Symmetry/Antisymmetry/Encastre
*Boundary
Set-4, ENCASTRE
** 
** LOADS
** 
** Name: Load-1   Type: Pressure
*Dsload
Surf-2, P, 0.8
** 
** OUTPUT REQUESTS
** 
*Restart, write, frequency=0
** 
** FIELD OUTPUT: F-Output-2
** 
*Output, field
*Node Output
U, 
*Element Output, directions=YES
E, S
** 
** FIELD OUTPUT: F-Output-1
** 
*Output, field, variable=PRESELECT
** 
** HISTORY OUTPUT: H-Output-1
** 
*Output, history, variable=PRESELECT
*End Step
